/*---------------------------------------------------------------------------*\
| =========                 |                                                 |
| \\      /  F ield         | OpenFOAM: The Open Source CFD Toolbox           |
|  \\    /   O peration     | Version:  2406                                  |
|   \\  /    A nd           | Website:  www.openfoam.com                      |
|    \\/     M anipulation  |                                                 |
\*---------------------------------------------------------------------------*/
Build  : _be01ca78-20240625 OPENFOAM=2406 version=2406
Arch   : "LSB;label=32;scalar=64"
Exec   : /usr/lib/openfoam/openfoam2406/platforms/linux64GccDPInt32Opt/bin/simpleFoam -case ./caserealisation
Date   : Jan 10 2025
Time   : 10:35:32
Host   : ben-Latitude-E5470
PID    : 530148
I/O    : uncollated
Case   : /home/ben/Documents/GitHub/umbridge-servers/openfoam/caserealisation
nProcs : 1
trapFpe: Floating point exception trapping enabled (FOAM_SIGFPE).
fileModificationChecking : Monitoring run-time modified files using timeStampMaster (fileModificationSkew 5, maxFileModificationPolls 20)
allowSystemOperations : Allowing user-supplied system call operations

// * * * * * * * * * * * * * * * * * * * * * * * * * * * * * * * * * * * * * //
Create time

Create mesh for time = 0


SIMPLE: convergence criteria
    field p	 tolerance 1e-10
    field U	 tolerance 1e-10
    field nuTilda	 tolerance 1e-10
    field epsilon	 tolerance 1e-10
    field k	 tolerance 1e-10

Reading field p

Reading field U

Reading/calculating face flux field phi

Selecting incompressible transport model Newtonian
Selecting turbulence model type RAS
Selecting RAS turbulence model SpalartAllmaras
Selecting patchDistMethod meshWave
ft2 term: inactive
RAS
{
    RASModel        SpalartAllmaras;
    turbulence      on;
    printCoeffs     on;
    sigmaNut        0.66666;
    kappa           0.41;
    Cb1             0.1355;
    Cb2             0.622;
    Cw2             0.3;
    Cw3             2;
    Cv1             7.1;
    Cs              0.3;
    ck              0.07;
    ft2             false;
    Ct3             1.2;
    Ct4             0.5;
}

No MRF models present

No finite volume options present

Starting time loop

--> FOAM Warning : 
    From void Foam::timeControl::read(const Foam::dictionary&)
    in file db/functionObjects/timeControl/timeControl.C at line 131
    Reading "system/controlDict/functions/wallPressure" at line 67 to 81
    Found deprecated 'outputControl'
    Use 'writeControl' with 'writeInterval'
    This keyword is 96 months old.

--> FOAM IOWarning :
    Found [v1612] 'functionObjectLibs' entry instead of 'libs' in dictionary "system/controlDict/functions/wallPressure"

    This keyword is 90 months old.

Sampled surface:
    bottomWall -> raw
        sampledPatch: bottomWall : patches:(bottomWall hump)

--> FOAM Warning : 
    From void Foam::timeControl::read(const Foam::dictionary&)
    in file db/functionObjects/timeControl/timeControl.C at line 131
    Reading "system/controlDict/functions/yPlus1" at line 88 to 93
    Found deprecated 'outputControl'
    Use 'writeControl' with 'writeInterval'
    This keyword is 96 months old.

--> FOAM Warning : 
    From void Foam::timeControl::read(const Foam::dictionary&)
    in file db/functionObjects/timeControl/timeControl.C at line 131
    Reading "system/controlDict/functions/wallShearStress1" at line 99 to 105
    Found deprecated 'outputControl'
    Use 'writeControl' with 'writeInterval'
    This keyword is 96 months old.

wallShearStress wallShearStress1:
    processing (2) wall patches:
        bottomWall
        hump

--> FOAM Warning : 
    From void Foam::timeControl::read(const Foam::dictionary&)
    in file db/functionObjects/timeControl/timeControl.C at line 131
    Reading "system/controlDict/functions/nearWallFields1" at line 112 to 121
    Found deprecated 'outputControl'
    Use 'writeControl' with 'writeInterval'
    This keyword is 96 months old.

nearWallFields nearWallFields1: Sampling 1 fields
surfaceFieldValue integrationBeforeJet:
    operation     = areaIntegrate


surfaceFieldValue integrationAfterJet:
    operation     = areaIntegrate


--> FOAM Warning : 


    From static Foam::autoPtr<Foam::functionObject> Foam::functionObject::New(const Foam::word&, const Foam::Time&, const Foam::dictionary&)
    in file db/functionObjects/functionObject/functionObject.C at line 129.
--> loading function object 'residuals'

forces forces1:
    p: p
    U: U
    rho: rhoInf
    Freestream density (rhoInf) set to 1.225
    Reference pressure (pRef) set to 0
    Not including porosity effects
    Fields will be written

Time = 1

smoothSolver:  Solving for Ux, Initial residual = 1.2699659e-06, Final residual = 7.7799321e-10, No Iterations 8
smoothSolver:  Solving for Uy, Initial residual = 6.2555607e-06, Final residual = 3.9384939e-09, No Iterations 7
GAMG:  Solving for p, Initial residual = 0.0019798247, Final residual = 1.9398271e-06, No Iterations 170
time step continuity errors : sum local = 2.5851756e-06, global = 1.905952e-08, cumulative = 1.905952e-08
smoothSolver:  Solving for nuTilda, Initial residual = 4.7058572e-06, Final residual = 2.7935089e-09, No Iterations 10
ExecutionTime = 1.02 s  ClockTime = 1 s

nearWallFields nearWallFields1: Creating 1 fields
    created pWall to sample p

nearWallFields nearWallFields1 write:
    Sampling fields to 1
forces forces1 write:
    Sum of forces
        Total    : (7.7003272 124.02872 8.7073441e-19)
        Pressure : (7.1635114 123.92445 7.281937e-19)
        Viscous  : (0.53681585 0.10426292 1.4254071e-19)
    Sum of moments
        Total    : (-6.2014358 0.38501636 67.143995)
        Pressure : (-6.1962227 0.35817557 67.182185)
        Viscous  : (-0.0052131458 0.026840792 -0.038189794)
Time = 2

smoothSolver:  Solving for Ux, Initial residual = 0.00026678858, Final residual = 1.7151294e-07, No Iterations 8
smoothSolver:  Solving for Uy, Initial residual = 0.0012116242, Final residual = 8.335922e-07, No Iterations 7
GAMG:  Solving for p, Initial residual = 0.0098291273, Final residual = 9.2544027e-06, No Iterations 62
time step continuity errors : sum local = 1.6890116e-05, global = -2.2590436e-06, cumulative = -2.2399841e-06
smoothSolver:  Solving for nuTilda, Initial residual = 7.5117487e-06, Final residual = 4.6149364e-09, No Iterations 10
ExecutionTime = 1.31 s  ClockTime = 1 s

nearWallFields nearWallFields1 write:
    Sampling fields to 2
forces forces1 write:
    Sum of forces
        Total    : (6.8729272 118.82197 6.8503429e-19)
        Pressure : (6.3370728 118.71787 4.6861113e-19)
        Viscous  : (0.5358544 0.10410503 2.1642316e-19)
    Sum of moments
        Total    : (-5.9410985 0.34364636 64.496372)
        Pressure : (-5.9358933 0.31685364 64.534308)
        Viscous  : (-0.0052052515 0.02679272 -0.037935866)
Time = 3

smoothSolver:  Solving for Ux, Initial residual = 0.00019504982, Final residual = 1.7508177e-07, No Iterations 7
smoothSolver:  Solving for Uy, Initial residual = 0.00080936098, Final residual = 6.3155708e-07, No Iterations 7
GAMG:  Solving for p, Initial residual = 0.0053470968, Final residual = 5.2696655e-06, No Iterations 126
time step continuity errors : sum local = 8.9664075e-06, global = -1.6311156e-07, cumulative = -2.4030957e-06
smoothSolver:  Solving for nuTilda, Initial residual = 9.0739243e-06, Final residual = 5.8219712e-09, No Iterations 10
ExecutionTime = 1.73 s  ClockTime = 2 s

nearWallFields nearWallFields1 write:
    Sampling fields to 3
forces forces1 write:
    Sum of forces
        Total    : (5.5155078 101.41102 -3.2303233e-19)
        Pressure : (4.9775624 101.30711 -6.27736e-19)
        Viscous  : (0.5379454 0.1039137 3.0470366e-19)
    Sum of moments
        Total    : (-5.0705512 0.27577539 55.705099)
        Pressure : (-5.0653555 0.24887812 55.743333)
        Viscous  : (-0.0051956849 0.02689727 -0.038233649)
Time = 4

smoothSolver:  Solving for Ux, Initial residual = 5.7371502e-05, Final residual = 4.0839675e-08, No Iterations 9
smoothSolver:  Solving for Uy, Initial residual = 0.00065736304, Final residual = 5.685868e-07, No Iterations 8
GAMG:  Solving for p, Initial residual = 0.016505365, Final residual = 1.5717762e-05, No Iterations 93
time step continuity errors : sum local = 2.0539116e-05, global = -8.948604e-07, cumulative = -3.2979561e-06
smoothSolver:  Solving for nuTilda, Initial residual = 8.2310174e-06, Final residual = 4.9236746e-09, No Iterations 10
ExecutionTime = 2.08 s  ClockTime = 2 s

nearWallFields nearWallFields1 write:
    Sampling fields to 4
forces forces1 write:
    Sum of forces
        Total    : (5.3549812 92.243817 -9.1341421e-19)
        Pressure : (4.8145657 92.140414 -1.292468e-18)
        Viscous  : (0.54041545 0.10340292 3.7905374e-19)
    Sum of moments
        Total    : (-4.6121908 0.26774906 51.060426)
        Pressure : (-4.6070207 0.24072829 51.099276)
        Viscous  : (-0.0051701461 0.027020772 -0.038850046)
Time = 5

smoothSolver:  Solving for Ux, Initial residual = 0.00014252391, Final residual = 1.0049967e-07, No Iterations 8
smoothSolver:  Solving for Uy, Initial residual = 0.00062208518, Final residual = 5.8886997e-07, No Iterations 7
GAMG:  Solving for p, Initial residual = 0.020041143, Final residual = 1.9137927e-05, No Iterations 62
time step continuity errors : sum local = 2.0997966e-05, global = 3.2503186e-06, cumulative = -4.7637468e-08
smoothSolver:  Solving for nuTilda, Initial residual = 6.3126609e-06, Final residual = 3.6041705e-09, No Iterations 10
ExecutionTime = 2.32 s  ClockTime = 2 s

nearWallFields nearWallFields1 write:
    Sampling fields to 5
forces forces1 write:
    Sum of forces
        Total    : (6.1511256 95.962224 -7.8133389e-19)
        Pressure : (5.610168 95.859579 -1.1299032e-18)
        Viscous  : (0.54095764 0.1026457 3.4856934e-19)
    Sum of moments
        Total    : (-4.7981112 0.30755628 52.92351)
        Pressure : (-4.7929789 0.2805084 52.962921)
        Viscous  : (-0.0051322849 0.027047882 -0.039411103)
Time = 6

smoothSolver:  Solving for Ux, Initial residual = 9.2113113e-05, Final residual = 6.0197874e-08, No Iterations 8
smoothSolver:  Solving for Uy, Initial residual = 0.00064392053, Final residual = 6.3238611e-07, No Iterations 8
GAMG:  Solving for p, Initial residual = 0.010979678, Final residual = 1.0956059e-05, No Iterations 92
time step continuity errors : sum local = 1.2898882e-05, global = 8.7621919e-07, cumulative = 8.2858172e-07
smoothSolver:  Solving for nuTilda, Initial residual = 5.2124968e-06, Final residual = 2.5609448e-09, No Iterations 10
ExecutionTime = 2.65 s  ClockTime = 3 s

nearWallFields nearWallFields1 write:
    Sampling fields to 6
forces forces1 write:
    Sum of forces
        Total    : (6.7053101 103.88286 -3.0389832e-19)
        Pressure : (6.1655027 103.78044 -6.1442224e-19)
        Viscous  : (0.5398075 0.10241944 3.1052392e-19)
    Sum of moments
        Total    : (-5.194143 0.33526551 56.953195)
        Pressure : (-5.189022 0.30827513 56.992637)
        Viscous  : (-0.0051209718 0.026990375 -0.039442797)
Time = 7

smoothSolver:  Solving for Ux, Initial residual = 4.5975456e-05, Final residual = 2.9996736e-08, No Iterations 9
smoothSolver:  Solving for Uy, Initial residual = 0.00064086034, Final residual = 5.7915724e-07, No Iterations 8
GAMG:  Solving for p, Initial residual = 0.014684291, Final residual = 1.4116066e-05, No Iterations 85
time step continuity errors : sum local = 1.9195817e-05, global = 1.4672473e-06, cumulative = 2.295829e-06
smoothSolver:  Solving for nuTilda, Initial residual = 5.1302906e-06, Final residual = 2.2628552e-09, No Iterations 10
ExecutionTime = 2.96 s  ClockTime = 3 s

nearWallFields nearWallFields1 write:
    Sampling fields to 7
forces forces1 write:
    Sum of forces
        Total    : (6.5371147 107.73231 -3.7744867e-20)
        Pressure : (5.9982477 107.62979 -3.0671616e-19)
        Viscous  : (0.53886702 0.10251911 2.6897129e-19)
    Sum of moments
        Total    : (-5.3866155 0.32685574 58.968442)
        Pressure : (-5.3814896 0.29991238 59.007692)
        Viscous  : (-0.0051259554 0.026943351 -0.039250552)
Time = 8

smoothSolver:  Solving for Ux, Initial residual = 6.4405426e-05, Final residual = 4.1433469e-08, No Iterations 8
smoothSolver:  Solving for Uy, Initial residual = 0.00035884395, Final residual = 2.3588182e-07, No Iterations 8
GAMG:  Solving for p, Initial residual = 0.01092284, Final residual = 1.0621887e-05, No Iterations 76
time step continuity errors : sum local = 1.535776e-05, global = -1.9417869e-06, cumulative = 3.5404212e-07
smoothSolver:  Solving for nuTilda, Initial residual = 5.3268689e-06, Final residual = 2.2819939e-09, No Iterations 10
ExecutionTime = 3.23 s  ClockTime = 3 s

nearWallFields nearWallFields1 write:
    Sampling fields to 8
forces forces1 write:
    Sum of forces
        Total    : (6.1161503 106.61057 -5.9087222e-20)
        Pressure : (5.576992 106.50778 -3.4189414e-19)
        Viscous  : (0.53915831 0.10279246 2.8280692e-19)
    Sum of moments
        Total    : (-5.3305284 0.30580751 58.446636)
        Pressure : (-5.3253888 0.2788496 58.485741)
        Viscous  : (-0.0051396232 0.026957916 -0.039104667)
Time = 9

smoothSolver:  Solving for Ux, Initial residual = 5.8321361e-05, Final residual = 4.517208e-08, No Iterations 8
smoothSolver:  Solving for Uy, Initial residual = 0.0004842326, Final residual = 3.1011298e-07, No Iterations 9
GAMG:  Solving for p, Initial residual = 0.0093770432, Final residual = 9.1902638e-06, No Iterations 62
time step continuity errors : sum local = 1.3065061e-05, global = -1.9347592e-06, cumulative = -1.5807171e-06
smoothSolver:  Solving for nuTilda, Initial residual = 5.7705323e-06, Final residual = 2.6331121e-09, No Iterations 10
ExecutionTime = 3.48 s  ClockTime = 4 s

nearWallFields nearWallFields1 write:
    Sampling fields to 9
forces forces1 write:
    Sum of forces
        Total    : (5.9704124 103.82302 -2.4058931e-19)
        Pressure : (5.4301266 103.72037 -5.3341441e-19)
        Viscous  : (0.54028578 0.10264525 2.928251e-19)
    Sum of moments
        Total    : (-5.191151 0.29852062 57.005555)
        Pressure : (-5.1860187 0.27150633 57.044882)
        Viscous  : (-0.0051322623 0.027014289 -0.039326868)
Time = 10

smoothSolver:  Solving for Ux, Initial residual = 3.8563382e-05, Final residual = 2.2572378e-08, No Iterations 9
smoothSolver:  Solving for Uy, Initial residual = 0.00040390969, Final residual = 4.0158892e-07, No Iterations 8
GAMG:  Solving for p, Initial residual = 0.010842316, Final residual = 1.0395247e-05, No Iterations 81
time step continuity errors : sum local = 1.4135404e-05, global = -1.2366948e-06, cumulative = -2.8174118e-06
smoothSolver:  Solving for nuTilda, Initial residual = 6.2865301e-06, Final residual = 3.1244776e-09, No Iterations 10
ExecutionTime = 3.78 s  ClockTime = 4 s

nearWallFields nearWallFields1 write:
    Sampling fields to 10
forces forces1 write:
    Sum of forces
        Total    : (6.1126423 101.95971 -3.6457107e-19)
        Pressure : (5.5717471 101.85729 -6.8307388e-19)
        Viscous  : (0.54089517 0.1024146 3.1850281e-19)
    Sum of moments
        Total    : (-5.0979853 0.30563211 55.985396)
        Pressure : (-5.0928645 0.27858735 56.024968)
        Viscous  : (-0.0051207302 0.027044759 -0.039572063)
Time = 11

smoothSolver:  Solving for Ux, Initial residual = 3.064876e-05, Final residual = 2.949801e-08, No Iterations 8
smoothSolver:  Solving for Uy, Initial residual = 0.0002667234, Final residual = 2.4746757e-07, No Iterations 8
GAMG:  Solving for p, Initial residual = 0.0090879395, Final residual = 8.9837325e-06, No Iterations 83
time step continuity errors : sum local = 1.1819797e-05, global = -6.0829384e-07, cumulative = -3.4257057e-06
smoothSolver:  Solving for nuTilda, Initial residual = 5.8972749e-06, Final residual = 2.872792e-09, No Iterations 10
ExecutionTime = 4.04 s  ClockTime = 4 s

nearWallFields nearWallFields1 write:
    Sampling fields to 11
forces forces1 write:
    Sum of forces
        Total    : (6.2645664 101.56468 -4.1248445e-19)
        Pressure : (5.723459 101.46261 -7.2236238e-19)
        Viscous  : (0.54110735 0.10207079 3.0987793e-19)
    Sum of moments
        Total    : (-5.0782339 0.31322832 55.741056)
        Pressure : (-5.0731303 0.28617295 55.780867)
        Viscous  : (-0.0051035394 0.027055367 -0.039811209)
Time = 12

smoothSolver:  Solving for Ux, Initial residual = 2.9564796e-05, Final residual = 2.5756491e-08, No Iterations 8
smoothSolver:  Solving for Uy, Initial residual = 0.00036420071, Final residual = 2.3257159e-07, No Iterations 9
GAMG:  Solving for p, Initial residual = 0.0079422157, Final residual = 7.4111136e-06, No Iterations 66
time step continuity errors : sum local = 9.6595857e-06, global = 1.4216853e-06, cumulative = -2.0040203e-06
smoothSolver:  Solving for nuTilda, Initial residual = 5.4198295e-06, Final residual = 2.2996648e-09, No Iterations 10
ExecutionTime = 4.26 s  ClockTime = 4 s

nearWallFields nearWallFields1 write:
    Sampling fields to 12
forces forces1 write:
    Sum of forces
        Total    : (6.2781665 102.2072 -3.6152133e-19)
        Pressure : (5.7372015 102.10514 -6.7757494e-19)
        Viscous  : (0.54096508 0.1020536 3.1605361e-19)
    Sum of moments
        Total    : (-5.1103599 0.31390833 56.09645)
        Pressure : (-5.1052572 0.28686007 56.136256)
        Viscous  : (-0.0051026798 0.027048254 -0.039805152)
Time = 13

smoothSolver:  Solving for Ux, Initial residual = 2.7616043e-05, Final residual = 2.3029333e-08, No Iterations 8
smoothSolver:  Solving for Uy, Initial residual = 0.00030534974, Final residual = 2.6050207e-07, No Iterations 8
GAMG:  Solving for p, Initial residual = 0.0075011229, Final residual = 7.0789227e-06, No Iterations 77
time step continuity errors : sum local = 9.3142079e-06, global = 9.9222515e-07, cumulative = -1.0117952e-06
smoothSolver:  Solving for nuTilda, Initial residual = 5.1065865e-06, Final residual = 1.9937866e-09, No Iterations 10
ExecutionTime = 4.52 s  ClockTime = 5 s

nearWallFields nearWallFields1 write:
    Sampling fields to 13
forces forces1 write:
    Sum of forces
        Total    : (6.2129879 103.3038 -2.982407e-19)
        Pressure : (5.671785 103.20183 -5.9823831e-19)
        Viscous  : (0.54120293 0.10196497 2.9999761e-19)
    Sum of moments
        Total    : (-5.1651899 0.31064939 56.714188)
        Pressure : (-5.1600916 0.28358925 56.754058)
        Viscous  : (-0.0050982487 0.027060147 -0.039869678)
Time = 14

smoothSolver:  Solving for Ux, Initial residual = 2.5193874e-05, Final residual = 1.9726823e-08, No Iterations 8
smoothSolver:  Solving for Uy, Initial residual = 0.00018386924, Final residual = 1.8239413e-07, No Iterations 8
GAMG:  Solving for p, Initial residual = 0.0068077488, Final residual = 6.7198579e-06, No Iterations 85
time step continuity errors : sum local = 9.0098767e-06, global = 4.5153398e-07, cumulative = -5.6026121e-07
smoothSolver:  Solving for nuTilda, Initial residual = 5.256165e-06, Final residual = 1.9447472e-09, No Iterations 10
ExecutionTime = 4.75 s  ClockTime = 5 s

nearWallFields nearWallFields1 write:
    Sampling fields to 14
forces forces1 write:
    Sum of forces
        Total    : (6.1612415 104.17213 -2.30586e-19)
        Pressure : (5.6197447 104.07018 -5.3431137e-19)
        Viscous  : (0.54149678 0.10194678 3.0372537e-19)
    Sum of moments
        Total    : (-5.2086064 0.30806208 57.179992)
        Pressure : (-5.203509 0.28098724 57.21992)
        Viscous  : (-0.0050973392 0.027074839 -0.039928331)
Time = 15

smoothSolver:  Solving for Ux, Initial residual = 2.3958796e-05, Final residual = 1.84313e-08, No Iterations 8
smoothSolver:  Solving for Uy, Initial residual = 0.00020101525, Final residual = 1.3762292e-07, No Iterations 9
GAMG:  Solving for p, Initial residual = 0.0056630442, Final residual = 5.5755061e-06, No Iterations 69
time step continuity errors : sum local = 7.5985826e-06, global = 4.5951191e-07, cumulative = -1.007493e-07
smoothSolver:  Solving for nuTilda, Initial residual = 5.4342002e-06, Final residual = 2.0501785e-09, No Iterations 10
ExecutionTime = 5 s  ClockTime = 5 s

nearWallFields nearWallFields1 write:
    Sampling fields to 15
forces forces1 write:
    Sum of forces
        Total    : (6.1445761 104.26949 -2.3097476e-19)
        Pressure : (5.6025816 104.16783 -5.2063354e-19)
        Viscous  : (0.54199456 0.10166002 2.8965878e-19)
    Sum of moments
        Total    : (-5.2134746 0.30722881 57.197664)
        Pressure : (-5.2083916 0.28012908 57.237835)
        Viscous  : (-0.0050830011 0.027099728 -0.040170993)
Time = 16

smoothSolver:  Solving for Ux, Initial residual = 2.450991e-05, Final residual = 1.7514786e-08, No Iterations 8
smoothSolver:  Solving for Uy, Initial residual = 0.00021401245, Final residual = 1.7576648e-07, No Iterations 8
GAMG:  Solving for p, Initial residual = 0.0054240907, Final residual = 5.3613336e-06, No Iterations 61
time step continuity errors : sum local = 7.3293039e-06, global = -1.1475994e-06, cumulative = -1.2483487e-06
smoothSolver:  Solving for nuTilda, Initial residual = 5.7616795e-06, Final residual = 2.1979668e-09, No Iterations 10
ExecutionTime = 5.17 s  ClockTime = 5 s

nearWallFields nearWallFields1 write:
    Sampling fields to 16
forces forces1 write:
    Sum of forces
        Total    : (6.1409156 103.64408 -2.5378039e-19)
        Pressure : (5.598682 103.54256 -5.5721301e-19)
        Viscous  : (0.54223353 0.10152071 3.0343262e-19)
    Sum of moments
        Total    : (-5.1822038 0.30704578 56.831105)
        Pressure : (-5.1771278 0.2799341 56.871412)
        Viscous  : (-0.0050760354 0.027111676 -0.040307351)
Time = 17

smoothSolver:  Solving for Ux, Initial residual = 1.9493193e-05, Final residual = 1.2986049e-08, No Iterations 8
smoothSolver:  Solving for Uy, Initial residual = 0.00018714124, Final residual = 1.5094044e-07, No Iterations 8
GAMG:  Solving for p, Initial residual = 0.0050467325, Final residual = 4.8274439e-06, No Iterations 83
time step continuity errors : sum local = 6.52972e-06, global = -2.7647879e-07, cumulative = -1.5248275e-06
smoothSolver:  Solving for nuTilda, Initial residual = 5.7463743e-06, Final residual = 2.1894115e-09, No Iterations 10
ExecutionTime = 5.41 s  ClockTime = 6 s

nearWallFields nearWallFields1 write:
    Sampling fields to 17
forces forces1 write:
    Sum of forces
        Total    : (6.1410856 102.90897 -3.0556689e-19)
        Pressure : (5.5984203 102.80771 -6.0787844e-19)
        Viscous  : (0.54266525 0.10126352 3.0231154e-19)
    Sum of moments
        Total    : (-5.1454487 0.30705428 56.438059)
        Pressure : (-5.1403855 0.27992102 56.47857)
        Viscous  : (-0.0050631759 0.027133263 -0.040510908)
Time = 18

smoothSolver:  Solving for Ux, Initial residual = 1.6766834e-05, Final residual = 1.2076365e-08, No Iterations 8
smoothSolver:  Solving for Uy, Initial residual = 0.00017997967, Final residual = 1.6531505e-07, No Iterations 8
GAMG:  Solving for p, Initial residual = 0.0044096736, Final residual = 4.1326885e-06, No Iterations 77
time step continuity errors : sum local = 5.5119099e-06, global = -2.0914702e-07, cumulative = -1.7339745e-06
smoothSolver:  Solving for nuTilda, Initial residual = 5.7854528e-06, Final residual = 2.0646034e-09, No Iterations 10
ExecutionTime = 5.62 s  ClockTime = 6 s

nearWallFields nearWallFields1 write:
    Sampling fields to 18
forces forces1 write:
    Sum of forces
        Total    : (6.1427966 102.66799 -3.170786e-19)
        Pressure : (5.5998894 102.56679 -6.3070708e-19)
        Viscous  : (0.54290714 0.10120116 3.1362848e-19)
    Sum of moments
        Total    : (-5.1333995 0.30713983 56.332153)
        Pressure : (-5.1283395 0.27999447 56.372736)
        Viscous  : (-0.005060058 0.027145357 -0.040583027)
Time = 19

smoothSolver:  Solving for Ux, Initial residual = 1.8975051e-05, Final residual = 1.2437134e-08, No Iterations 8
smoothSolver:  Solving for Uy, Initial residual = 0.00018829125, Final residual = 1.1543226e-07, No Iterations 8
GAMG:  Solving for p, Initial residual = 0.0044065231, Final residual = 4.1220112e-06, No Iterations 55
time step continuity errors : sum local = 5.4694606e-06, global = 6.4989605e-07, cumulative = -1.0840784e-06
smoothSolver:  Solving for nuTilda, Initial residual = 5.7528981e-06, Final residual = 1.9637919e-09, No Iterations 10
ExecutionTime = 5.79 s  ClockTime = 6 s

nearWallFields nearWallFields1 write:
    Sampling fields to 19
forces forces1 write:
    Sum of forces
        Total    : (6.137634 102.99387 -3.1616225e-19)
        Pressure : (5.5942754 102.89292 -6.1223568e-19)
        Viscous  : (0.54335861 0.1009513 2.9607343e-19)
    Sum of moments
        Total    : (-5.1496935 0.3068817 56.520163)
        Pressure : (-5.1446459 0.27971377 56.560946)
        Viscous  : (-0.005047565 0.02716793 -0.040782441)
Time = 20

smoothSolver:  Solving for Ux, Initial residual = 1.8541096e-05, Final residual = 1.1638401e-08, No Iterations 8
smoothSolver:  Solving for Uy, Initial residual = 0.00018599296, Final residual = 1.7772986e-07, No Iterations 7
GAMG:  Solving for p, Initial residual = 0.0041945026, Final residual = 3.9978245e-06, No Iterations 75
time step continuity errors : sum local = 5.3337928e-06, global = 3.386887e-07, cumulative = -7.4538973e-07
smoothSolver:  Solving for nuTilda, Initial residual = 6.0219037e-06, Final residual = 1.9815978e-09, No Iterations 10
ExecutionTime = 6.03 s  ClockTime = 6 s

nearWallFields nearWallFields1 write:
    Sampling fields to 20
forces forces1 write:
    Sum of forces
        Total    : (6.1164312 103.49325 -2.7158433e-19)
        Pressure : (5.5727678 103.39244 -5.7394921e-19)
        Viscous  : (0.54366338 0.10081179 3.0236488e-19)
    Sum of moments
        Total    : (-5.1746625 0.30582156 56.775416)
        Pressure : (-5.1696219 0.27863839 56.816338)
        Viscous  : (-0.0050405896 0.027183169 -0.040922614)
Time = 21

smoothSolver:  Solving for Ux, Initial residual = 1.7889726e-05, Final residual = 1.1434933e-08, No Iterations 8
smoothSolver:  Solving for Uy, Initial residual = 0.0001812001, Final residual = 1.7849829e-07, No Iterations 7
GAMG:  Solving for p, Initial residual = 0.0036294718, Final residual = 3.4497293e-06, No Iterations 77
time step continuity errors : sum local = 4.6457892e-06, global = 2.1549465e-07, cumulative = -5.2989508e-07
smoothSolver:  Solving for nuTilda, Initial residual = 6.2257657e-06, Final residual = 2.0799065e-09, No Iterations 10
ExecutionTime = 6.26 s  ClockTime = 6 s

nearWallFields nearWallFields1 write:
    Sampling fields to 21
forces forces1 write:
    Sum of forces
        Total    : (6.0873558 103.75587 -2.5379026e-19)
        Pressure : (5.5432115 103.65536 -5.4695811e-19)
        Viscous  : (0.54414427 0.10050738 2.9316785e-19)
    Sum of moments
        Total    : (-5.1877934 0.30436779 56.889182)
        Pressure : (-5.182768 0.27716058 56.930355)
        Viscous  : (-0.0050253688 0.027207213 -0.041172699)
Time = 22

smoothSolver:  Solving for Ux, Initial residual = 1.8615757e-05, Final residual = 1.2074389e-08, No Iterations 8
smoothSolver:  Solving for Uy, Initial residual = 0.00018071105, Final residual = 1.6160324e-07, No Iterations 7
GAMG:  Solving for p, Initial residual = 0.003369156, Final residual = 3.2829306e-06, No Iterations 53
time step continuity errors : sum local = 4.4444171e-06, global = 3.9036638e-07, cumulative = -1.395287e-07
smoothSolver:  Solving for nuTilda, Initial residual = 6.5682487e-06, Final residual = 2.1762004e-09, No Iterations 10
ExecutionTime = 6.42 s  ClockTime = 7 s

nearWallFields nearWallFields1 write:
    Sampling fields to 22
forces forces1 write:
    Sum of forces
        Total    : (6.066 103.68301 -2.4310645e-19)
        Pressure : (5.5215617 103.58265 -5.4601878e-19)
        Viscous  : (0.54443828 0.1003609 3.0291233e-19)
    Sum of moments
        Total    : (-5.1841505 0.3033 56.830913)
        Pressure : (-5.1791324 0.27607809 56.872227)
        Viscous  : (-0.005018045 0.027221914 -0.041314633)
Time = 23

smoothSolver:  Solving for Ux, Initial residual = 1.9039182e-05, Final residual = 1.2912877e-08, No Iterations 8
smoothSolver:  Solving for Uy, Initial residual = 0.00018733508, Final residual = 1.5619114e-07, No Iterations 7
GAMG:  Solving for p, Initial residual = 0.0033389624, Final residual = 3.2213319e-06, No Iterations 59
time step continuity errors : sum local = 4.3568436e-06, global = -6.9329951e-07, cumulative = -8.3282821e-07
smoothSolver:  Solving for nuTilda, Initial residual = 6.7209124e-06, Final residual = 2.2275498e-09, No Iterations 10
ExecutionTime = 6.61 s  ClockTime = 7 s

nearWallFields nearWallFields1 write:
    Sampling fields to 23
forces forces1 write:
    Sum of forces
        Total    : (6.0582733 103.45483 -2.7290994e-19)
        Pressure : (5.5134801 103.35473 -5.6188446e-19)
        Viscous  : (0.54479314 0.10010345 2.8897452e-19)
    Sum of moments
        Total    : (-5.1727415 0.30291366 56.705819)
        Pressure : (-5.1677363 0.27567401 56.747331)
        Viscous  : (-0.0050051726 0.027239657 -0.041511514)
Time = 24

smoothSolver:  Solving for Ux, Initial residual = 1.8850105e-05, Final residual = 1.2852438e-08, No Iterations 8
smoothSolver:  Solving for Uy, Initial residual = 0.00018473958, Final residual = 1.4640934e-07, No Iterations 7
GAMG:  Solving for p, Initial residual = 0.0033602468, Final residual = 3.2060442e-06, No Iterations 71
time step continuity errors : sum local = 4.3175413e-06, global = -2.1657127e-07, cumulative = -1.0493995e-06
smoothSolver:  Solving for nuTilda, Initial residual = 6.9896721e-06, Final residual = 2.2470261e-09, No Iterations 10
ExecutionTime = 6.82 s  ClockTime = 7 s

nearWallFields nearWallFields1 write:
    Sampling fields to 24
forces forces1 write:
    Sum of forces
        Total    : (6.0539896 103.29105 -2.7573398e-19)
        Pressure : (5.5089621 103.19104 -5.7654234e-19)
        Viscous  : (0.54502751 0.10000838 3.0080836e-19)
    Sum of moments
        Total    : (-5.1645524 0.30269948 56.624291)
        Pressure : (-5.159552 0.2754481 56.665898)
        Viscous  : (-0.0050004188 0.027251375 -0.041607395)
Time = 25

smoothSolver:  Solving for Ux, Initial residual = 1.9135074e-05, Final residual = 1.2521882e-08, No Iterations 8
smoothSolver:  Solving for Uy, Initial residual = 0.00018890582, Final residual = 1.3456811e-07, No Iterations 7
GAMG:  Solving for p, Initial residual = 0.0032508151, Final residual = 3.2460411e-06, No Iterations 59
time step continuity errors : sum local = 4.3574025e-06, global = -4.2712336e-07, cumulative = -1.4765228e-06
smoothSolver:  Solving for nuTilda, Initial residual = 7.1850035e-06, Final residual = 2.2959824e-09, No Iterations 10
ExecutionTime = 7 s  ClockTime = 7 s

nearWallFields nearWallFields1 write:
    Sampling fields to 25
forces forces1 write:
    Sum of forces
        Total    : (6.0415692 103.29361 -2.8034565e-19)
        Pressure : (5.4961717 103.19382 -5.7740287e-19)
        Viscous  : (0.5453975 0.099785435 2.9705722e-19)
    Sum of moments
        Total    : (-5.1646805 0.30207846 56.626786)
        Pressure : (-5.1596912 0.27480858 56.668572)
        Viscous  : (-0.0049892717 0.027269875 -0.041785609)
Time = 26

smoothSolver:  Solving for Ux, Initial residual = 2.0165031e-05, Final residual = 1.314911e-08, No Iterations 8
smoothSolver:  Solving for Uy, Initial residual = 0.00020596457, Final residual = 1.2537547e-07, No Iterations 7
GAMG:  Solving for p, Initial residual = 0.0030700779, Final residual = 2.9984062e-06, No Iterations 55
time step continuity errors : sum local = 4.0243752e-06, global = 5.5721833e-07, cumulative = -9.1930451e-07
smoothSolver:  Solving for nuTilda, Initial residual = 7.6468554e-06, Final residual = 2.4413453e-09, No Iterations 10
ExecutionTime = 7.17 s  ClockTime = 7 s

nearWallFields nearWallFields1 write:
    Sampling fields to 26
forces forces1 write:
    Sum of forces
        Total    : (6.0185218 103.42345 -2.5793769e-19)
        Pressure : (5.4728684 103.32376 -5.654435e-19)
        Viscous  : (0.54565345 0.099688006 3.0750582e-19)
    Sum of moments
        Total    : (-5.1711723 0.30092609 56.686486)
        Pressure : (-5.1661879 0.27364342 56.728374)
        Viscous  : (-0.0049844003 0.027282673 -0.04188861)
Time = 27

smoothSolver:  Solving for Ux, Initial residual = 2.1098497e-05, Final residual = 1.4347246e-08, No Iterations 8
smoothSolver:  Solving for Uy, Initial residual = 0.00021392227, Final residual = 1.1927922e-07, No Iterations 7
GAMG:  Solving for p, Initial residual = 0.0028877047, Final residual = 2.716118e-06, No Iterations 65
time step continuity errors : sum local = 3.6545641e-06, global = 5.2876581e-07, cumulative = -3.905387e-07
smoothSolver:  Solving for nuTilda, Initial residual = 8.0488175e-06, Final residual = 2.6494585e-09, No Iterations 10
ExecutionTime = 7.37 s  ClockTime = 8 s

nearWallFields nearWallFields1 write:
    Sampling fields to 27
forces forces1 write:
    Sum of forces
        Total    : (5.9929992 103.58148 -2.5899497e-19)
        Pressure : (5.4470146 103.48203 -5.4943315e-19)
        Viscous  : (0.54598468 0.099450701 2.9043818e-19)
    Sum of moments
        Total    : (-5.1790741 0.29964996 56.754108)
        Pressure : (-5.1741016 0.27235073 56.796181)
        Viscous  : (-0.004972535 0.027299234 -0.042072966)
Time = 28

smoothSolver:  Solving for Ux, Initial residual = 2.2153521e-05, Final residual = 1.5801538e-08, No Iterations 8
smoothSolver:  Solving for Uy, Initial residual = 0.00021517358, Final residual = 1.1674002e-07, No Iterations 7
GAMG:  Solving for p, Initial residual = 0.0027707356, Final residual = 2.7603021e-06, No Iterations 65
time step continuity errors : sum local = 3.7251953e-06, global = 5.0158226e-07, cumulative = 1.1104357e-07
smoothSolver:  Solving for nuTilda, Initial residual = 8.5996295e-06, Final residual = 2.8592935e-09, No Iterations 10
ExecutionTime = 7.55 s  ClockTime = 8 s

nearWallFields nearWallFields1 write:
    Sampling fields to 28
forces forces1 write:
    Sum of forces
        Total    : (5.9723003 103.68022 -2.4172827e-19)
        Pressure : (5.4261056 103.58086 -5.3904743e-19)
        Viscous  : (0.54619463 0.099359571 2.9731916e-19)
    Sum of moments
        Total    : (-5.1840111 0.29861501 56.791869)
        Pressure : (-5.1790431 0.27130528 56.834036)
        Viscous  : (-0.0049679785 0.027309731 -0.042167702)
Time = 29

smoothSolver:  Solving for Ux, Initial residual = 2.3451352e-05, Final residual = 1.6889964e-08, No Iterations 8
smoothSolver:  Solving for Uy, Initial residual = 0.00022028009, Final residual = 1.2380979e-07, No Iterations 7
GAMG:  Solving for p, Initial residual = 0.0027284477, Final residual = 2.6957083e-06, No Iterations 50
time step continuity errors : sum local = 3.6451432e-06, global = -5.5344802e-07, cumulative = -4.4240446e-07
smoothSolver:  Solving for nuTilda, Initial residual = 8.9735464e-06, Final residual = 3.057749e-09, No Iterations 10
ExecutionTime = 7.7 s  ClockTime = 8 s

nearWallFields nearWallFields1 write:
    Sampling fields to 29
forces forces1 write:
    Sum of forces
        Total    : (5.9574921 103.69471 -2.4532707e-19)
        Pressure : (5.4109699 103.59557 -5.3689746e-19)
        Viscous  : (0.5465222 0.099141562 2.9157039e-19)
    Sum of moments
        Total    : (-5.1847355 0.2978746 56.790408)
        Pressure : (-5.1797784 0.27054849 56.832748)
        Viscous  : (-0.0049570781 0.02732611 -0.042339786)
Time = 30

smoothSolver:  Solving for Ux, Initial residual = 2.474944e-05, Final residual = 1.7642202e-08, No Iterations 8
smoothSolver:  Solving for Uy, Initial residual = 0.00022775163, Final residual = 1.326998e-07, No Iterations 7
GAMG:  Solving for p, Initial residual = 0.0027426344, Final residual = 2.6579248e-06, No Iterations 49
time step continuity errors : sum local = 3.5944946e-06, global = -5.8445071e-07, cumulative = -1.0268552e-06
smoothSolver:  Solving for nuTilda, Initial residual = 9.5295512e-06, Final residual = 3.2592382e-09, No Iterations 10
ExecutionTime = 7.86 s  ClockTime = 8 s

nearWallFields nearWallFields1 write:
    Sampling fields to 30
forces forces1 write:
    Sum of forces
        Total    : (5.9431733 103.65803 -2.3535355e-19)
        Pressure : (5.3964469 103.55896 -5.3961725e-19)
        Viscous  : (0.54672644 0.09907231 3.042637e-19)
    Sum of moments
        Total    : (-5.1829014 0.29715867 56.76587)
        Pressure : (-5.1779478 0.26982234 56.808286)
        Viscous  : (-0.0049536155 0.027336322 -0.042415803)
Time = 31

smoothSolver:  Solving for Ux, Initial residual = 2.5914112e-05, Final residual = 1.8182186e-08, No Iterations 8
smoothSolver:  Solving for Uy, Initial residual = 0.00023744057, Final residual = 1.377312e-07, No Iterations 7
GAMG:  Solving for p, Initial residual = 0.0026580207, Final residual = 2.6479618e-06, No Iterations 59
time step continuity errors : sum local = 3.5782304e-06, global = -5.1557981e-07, cumulative = -1.542435e-06
smoothSolver:  Solving for nuTilda, Initial residual = 1.0009088e-05, Final residual = 3.5017644e-09, No Iterations 10
ExecutionTime = 8.06 s  ClockTime = 8 s

nearWallFields nearWallFields1 write:
    Sampling fields to 31
forces forces1 write:
    Sum of forces
        Total    : (5.9257956 103.63146 -2.4948473e-19)
        Pressure : (5.3788105 103.53258 -5.4091111e-19)
        Viscous  : (0.54698504 0.09888241 2.9142638e-19)
    Sum of moments
        Total    : (-5.1815732 0.29628978 56.745984)
        Pressure : (-5.1766291 0.26894053 56.788542)
        Viscous  : (-0.0049441205 0.027349252 -0.042557953)
Time = 32

smoothSolver:  Solving for Ux, Initial residual = 2.7140685e-05, Final residual = 1.905996e-08, No Iterations 8
smoothSolver:  Solving for Uy, Initial residual = 0.00025201433, Final residual = 1.3920646e-07, No Iterations 7
GAMG:  Solving for p, Initial residual = 0.0025964103, Final residual = 2.5097412e-06, No Iterations 56
time step continuity errors : sum local = 3.389288e-06, global = 4.8951636e-07, cumulative = -1.0529186e-06
smoothSolver:  Solving for nuTilda, Initial residual = 1.0702217e-05, Final residual = 3.7973979e-09, No Iterations 10
ExecutionTime = 8.24 s  ClockTime = 8 s

nearWallFields nearWallFields1 write:
    Sampling fields to 32
forces forces1 write:
    Sum of forces
        Total    : (5.9046586 103.65744 -2.3405775e-19)
        Pressure : (5.3575058 103.55861 -5.3738376e-19)
        Viscous  : (0.5471528 0.098833373 3.0332601e-19)
    Sum of moments
        Total    : (-5.1828722 0.29523293 56.750714)
        Pressure : (-5.1779305 0.26787529 56.793332)
        Viscous  : (-0.0049416686 0.02735764 -0.042618395)
Time = 33

smoothSolver:  Solving for Ux, Initial residual = 2.8526225e-05, Final residual = 2.0194395e-08, No Iterations 8
smoothSolver:  Solving for Uy, Initial residual = 0.00026599075, Final residual = 1.4342088e-07, No Iterations 7
GAMG:  Solving for p, Initial residual = 0.0025721312, Final residual = 2.5071317e-06, No Iterations 49
time step continuity errors : sum local = 3.3874693e-06, global = 5.7254242e-07, cumulative = -4.803762e-07
smoothSolver:  Solving for nuTilda, Initial residual = 1.1319042e-05, Final residual = 4.1428613e-09, No Iterations 10
ExecutionTime = 8.4 s  ClockTime = 9 s

nearWallFields nearWallFields1 write:
    Sampling fields to 33
forces forces1 write:
    Sum of forces
        Total    : (5.882098 103.73501 -2.2937718e-19)
        Pressure : (5.334668 103.63636 -5.292198e-19)
        Viscous  : (0.54742998 0.098655512 2.9984262e-19)
    Sum of moments
        Total    : (-5.1867507 0.2941049 56.779294)
        Pressure : (-5.1818179 0.2667334 56.822053)
        Viscous  : (-0.0049327756 0.027371499 -0.042759759)
Time = 34

smoothSolver:  Solving for Ux, Initial residual = 3.0124968e-05, Final residual = 2.1502312e-08, No Iterations 8
smoothSolver:  Solving for Uy, Initial residual = 0.00027613721, Final residual = 1.4768271e-07, No Iterations 7
GAMG:  Solving for p, Initial residual = 0.0025674543, Final residual = 2.5375639e-06, No Iterations 53
time step continuity errors : sum local = 3.4332989e-06, global = 5.3995096e-07, cumulative = 5.9574764e-08
smoothSolver:  Solving for nuTilda, Initial residual = 1.2123349e-05, Final residual = 4.5055188e-09, No Iterations 10
ExecutionTime = 8.57 s  ClockTime = 9 s

nearWallFields nearWallFields1 write:
    Sampling fields to 34
forces forces1 write:
    Sum of forces
        Total    : (5.8595316 103.82669 -2.0786402e-19)
        Pressure : (5.3119047 103.72809 -5.2004946e-19)
        Viscous  : (0.54762689 0.098599658 3.1218544e-19)
    Sum of moments
        Total    : (-5.1913343 0.29297658 56.814427)
        Pressure : (-5.1864043 0.26559524 56.857255)
        Viscous  : (-0.0049299829 0.027381344 -0.04282742)
Time = 35

smoothSolver:  Solving for Ux, Initial residual = 3.1832462e-05, Final residual = 2.2680872e-08, No Iterations 8
smoothSolver:  Solving for Uy, Initial residual = 0.00028574815, Final residual = 1.5621431e-07, No Iterations 7
GAMG:  Solving for p, Initial residual = 0.002543317, Final residual = 2.5404832e-06, No Iterations 55
time step continuity errors : sum local = 3.4431622e-06, global = 4.8350902e-07, cumulative = 5.4308379e-07
smoothSolver:  Solving for nuTilda, Initial residual = 1.2837215e-05, Final residual = 4.8738662e-09, No Iterations 10
ExecutionTime = 8.77 s  ClockTime = 9 s

nearWallFields nearWallFields1 write:
    Sampling fields to 35
forces forces1 write:
    Sum of forces
        Total    : (5.8387077 103.89652 -2.1477571e-19)
        Pressure : (5.2908351 103.79809 -5.1286556e-19)
        Viscous  : (0.54787254 0.098430685 2.9808985e-19)
    Sum of moments
        Total    : (-5.194826 0.29193538 56.839247)
        Pressure : (-5.1899045 0.26454176 56.882201)
        Viscous  : (-0.0049215343 0.027393627 -0.042954255)
Time = 36

smoothSolver:  Solving for Ux, Initial residual = 3.3543157e-05, Final residual = 2.3762744e-08, No Iterations 8
smoothSolver:  Solving for Uy, Initial residual = 0.00029773611, Final residual = 1.686707e-07, No Iterations 7
GAMG:  Solving for p, Initial residual = 0.0025361003, Final residual = 2.5218607e-06, No Iterations 43
time step continuity errors : sum local = 3.4217603e-06, global = -6.1335816e-07, cumulative = -7.0274373e-08
smoothSolver:  Solving for nuTilda, Initial residual = 1.3734839e-05, Final residual = 5.2470709e-09, No Iterations 10
ExecutionTime = 8.9 s  ClockTime = 9 s

nearWallFields nearWallFields1 write:
    Sampling fields to 36
forces forces1 write:
    Sum of forces
        Total    : (5.8192828 103.93287 -1.9962571e-19)
        Pressure : (5.2713053 103.83445 -5.0895559e-19)
        Viscous  : (0.54797746 0.098418711 3.0932988e-19)
    Sum of moments
        Total    : (-5.1966436 0.29096414 56.848809)
        Pressure : (-5.1917227 0.26356527 56.891794)
        Viscous  : (-0.0049209356 0.027398873 -0.042984338)
Time = 37

smoothSolver:  Solving for Ux, Initial residual = 3.5158191e-05, Final residual = 2.4603057e-08, No Iterations 8
smoothSolver:  Solving for Uy, Initial residual = 0.00031117874, Final residual = 1.8098871e-07, No Iterations 7
GAMG:  Solving for p, Initial residual = 0.0025358379, Final residual = 2.4860164e-06, No Iterations 44
time step continuity errors : sum local = 3.3750355e-06, global = 7.6879696e-07, cumulative = 6.9852259e-07
smoothSolver:  Solving for nuTilda, Initial residual = 1.4500507e-05, Final residual = 5.6479256e-09, No Iterations 10
ExecutionTime = 9.07 s  ClockTime = 9 s

nearWallFields nearWallFields1 write:
    Sampling fields to 37
forces forces1 write:
    Sum of forces
        Total    : (5.8003137 103.95223 -2.0331067e-19)
        Pressure : (5.2520312 103.85397 -5.0625464e-19)
        Viscous  : (0.54828249 0.09825961 3.0294397e-19)
    Sum of moments
        Total    : (-5.1976113 0.29001569 56.849725)
        Pressure : (-5.1926983 0.26260156 56.892837)
        Viscous  : (-0.0049129805 0.027414124 -0.043112194)
Time = 38

smoothSolver:  Solving for Ux, Initial residual = 3.6759428e-05, Final residual = 2.5576268e-08, No Iterations 8
smoothSolver:  Solving for Uy, Initial residual = 0.00032558868, Final residual = 1.9047915e-07, No Iterations 7
GAMG:  Solving for p, Initial residual = 0.0025661962, Final residual = 2.4695288e-06, No Iterations 49
time step continuity errors : sum local = 3.3532464e-06, global = -5.0077076e-07, cumulative = 1.9775183e-07
smoothSolver:  Solving for nuTilda, Initial residual = 1.5493249e-05, Final residual = 6.079342e-09, No Iterations 10
ExecutionTime = 9.23 s  ClockTime = 9 s

nearWallFields nearWallFields1 write:
    Sampling fields to 38
forces forces1 write:
    Sum of forces
        Total    : (5.779321 103.97643 -1.8855764e-19)
        Pressure : (5.2309113 103.87818 -5.0288502e-19)
        Viscous  : (0.54840965 0.098248994 3.1432737e-19)
    Sum of moments
        Total    : (-5.1988215 0.28896605 56.852494)
        Pressure : (-5.1939091 0.26154557 56.895637)
        Viscous  : (-0.0049124497 0.027420482 -0.043143171)
Time = 39

smoothSolver:  Solving for Ux, Initial residual = 3.8418077e-05, Final residual = 2.6631316e-08, No Iterations 8
smoothSolver:  Solving for Uy, Initial residual = 0.00034071359, Final residual = 1.9969115e-07, No Iterations 7
GAMG:  Solving for p, Initial residual = 0.002566762, Final residual = 2.5130079e-06, No Iterations 46
time step continuity errors : sum local = 3.4137303e-06, global = 6.8007532e-07, cumulative = 8.7782715e-07
smoothSolver:  Solving for nuTilda, Initial residual = 1.6448727e-05, Final residual = 6.5470663e-09, No Iterations 10
ExecutionTime = 9.4 s  ClockTime = 10 s

nearWallFields nearWallFields1 write:
    Sampling fields to 39
forces forces1 write:
    Sum of forces
        Total    : (5.7568219 104.01979 -1.9678609e-19)
        Pressure : (5.2081748 103.92168 -4.974993e-19)
        Viscous  : (0.54864704 0.09810899 3.0071321e-19)
    Sum of moments
        Total    : (-5.2009893 0.28784109 56.863772)
        Pressure : (-5.1960838 0.26040874 56.907021)
        Viscous  : (-0.0049054495 0.027432352 -0.043248773)
Time = 40

smoothSolver:  Solving for Ux, Initial residual = 4.0243825e-05, Final residual = 2.7904325e-08, No Iterations 8
smoothSolver:  Solving for Uy, Initial residual = 0.000356723, Final residual = 2.1047733e-07, No Iterations 7
GAMG:  Solving for p, Initial residual = 0.0026455933, Final residual = 2.5758029e-06, No Iterations 43
time step continuity errors : sum local = 3.5014205e-06, global = 8.853343e-07, cumulative = 1.7631615e-06
smoothSolver:  Solving for nuTilda, Initial residual = 1.7605802e-05, Final residual = 7.0318329e-09, No Iterations 10
ExecutionTime = 9.55 s  ClockTime = 10 s

nearWallFields nearWallFields1 write:
    Sampling fields to 40
forces forces1 write:
    Sum of forces
        Total    : (5.7332696 104.07855 -1.7818511e-19)
        Pressure : (5.184531 103.98043 -4.9094553e-19)
        Viscous  : (0.54873866 0.098121796 3.1276043e-19)
    Sum of moments
        Total    : (-5.2039276 0.28666348 56.882732)
        Pressure : (-5.1990215 0.25922655 56.925994)
        Viscous  : (-0.0049060898 0.027436933 -0.043261311)
Time = 41

smoothSolver:  Solving for Ux, Initial residual = 4.2125049e-05, Final residual = 2.9102207e-08, No Iterations 8
smoothSolver:  Solving for Uy, Initial residual = 0.00037174435, Final residual = 2.2084527e-07, No Iterations 7
GAMG:  Solving for p, Initial residual = 0.0026818965, Final residual = 2.5346889e-06, No Iterations 44
time step continuity errors : sum local = 3.4492747e-06, global = -7.0084764e-07, cumulative = 1.0623138e-06
smoothSolver:  Solving for nuTilda, Initial residual = 1.8607418e-05, Final residual = 7.5301535e-09, No Iterations 10
ExecutionTime = 9.7 s  ClockTime = 10 s

nearWallFields nearWallFields1 write:
    Sampling fields to 41
forces forces1 write:
    Sum of forces
        Total    : (5.7105509 104.14188 -1.778343e-19)
        Pressure : (5.1615365 104.04388 -4.8403925e-19)
        Viscous  : (0.54901438 0.097998945 3.0620495e-19)
    Sum of moments
        Total    : (-5.2070941 0.28552754 56.903962)
        Pressure : (-5.2021942 0.25807682 56.947324)
        Viscous  : (-0.0048999473 0.027450719 -0.043362335)
Time = 42

smoothSolver:  Solving for Ux, Initial residual = 4.4030344e-05, Final residual = 3.0300361e-08, No Iterations 8
smoothSolver:  Solving for Uy, Initial residual = 0.00038697592, Final residual = 2.3491703e-07, No Iterations 7
GAMG:  Solving for p, Initial residual = 0.0027262857, Final residual = 2.6212463e-06, No Iterations 44
time step continuity errors : sum local = 3.5707776e-06, global = -6.7648638e-07, cumulative = 3.8582743e-07
smoothSolver:  Solving for nuTilda, Initial residual = 1.9831878e-05, Final residual = 8.0392301e-09, No Iterations 10
ExecutionTime = 9.84 s  ClockTime = 10 s

nearWallFields nearWallFields1 write:
    Sampling fields to 42
forces forces1 write:
    Sum of forces
        Total    : (5.6884929 104.19659 -1.6147003e-19)
        Pressure : (5.1393222 104.09859 -4.7812496e-19)
        Viscous  : (0.54917072 0.097998681 3.1665493e-19)
    Sum of moments
        Total    : (-5.2098293 0.28442464 56.921656)
        Pressure : (-5.2049294 0.25696611 56.965044)
        Viscous  : (-0.0048999341 0.027458536 -0.043387937)
Time = 43

smoothSolver:  Solving for Ux, Initial residual = 4.5873782e-05, Final residual = 3.1382315e-08, No Iterations 8
smoothSolver:  Solving for Uy, Initial residual = 0.00040267867, Final residual = 2.499769e-07, No Iterations 7
GAMG:  Solving for p, Initial residual = 0.002794728, Final residual = 2.7259078e-06, No Iterations 37
time step continuity errors : sum local = 3.7169393e-06, global = -7.0610186e-07, cumulative = -3.2027442e-07
smoothSolver:  Solving for nuTilda, Initial residual = 2.1011423e-05, Final residual = 8.563323e-09, No Iterations 10
ExecutionTime = 9.99 s  ClockTime = 10 s

nearWallFields nearWallFields1 write:
    Sampling fields to 43
forces forces1 write:
    Sum of forces
        Total    : (5.6669696 104.23974 -1.735552e-19)
        Pressure : (5.1176051 104.14184 -4.7316886e-19)
        Viscous  : (0.54936456 0.097897716 2.9961366e-19)
    Sum of moments
        Total    : (-5.211987 0.28334848 56.933932)
        Pressure : (-5.2070921 0.25588025 56.977395)
        Viscous  : (-0.0048948858 0.027468228 -0.043463117)
Time = 44

smoothSolver:  Solving for Ux, Initial residual = 4.7737611e-05, Final residual = 3.2541623e-08, No Iterations 8
smoothSolver:  Solving for Uy, Initial residual = 0.00041802104, Final residual = 2.6614746e-07, No Iterations 7
GAMG:  Solving for p, Initial residual = 0.0028680634, Final residual = 2.7549511e-06, No Iterations 41
time step continuity errors : sum local = 3.7589894e-06, global = -8.2398828e-07, cumulative = -1.1442627e-06
smoothSolver:  Solving for nuTilda, Initial residual = 2.2346755e-05, Final residual = 9.1082053e-09, No Iterations 10
ExecutionTime = 10.14 s  ClockTime = 10 s

nearWallFields nearWallFields1 write:
    Sampling fields to 44
forces forces1 write:
    Sum of forces
        Total    : (5.6447256 104.2742 -1.6157782e-19)
        Pressure : (5.095248 104.17628 -4.6904957e-19)
        Viscous  : (0.54947763 0.09791762 3.0747175e-19)
    Sum of moments
        Total    : (-5.2137099 0.28223628 56.942098)
        Pressure : (-5.208814 0.2547624 56.98557)
        Viscous  : (-0.004895881 0.027473882 -0.04347189)
Time = 45

smoothSolver:  Solving for Ux, Initial residual = 4.9535796e-05, Final residual = 3.3704874e-08, No Iterations 8
smoothSolver:  Solving for Uy, Initial residual = 0.0004341746, Final residual = 2.8121832e-07, No Iterations 7
GAMG:  Solving for p, Initial residual = 0.0029072192, Final residual = 2.6632843e-06, No Iterations 43
time step continuity errors : sum local = 3.6362209e-06, global = -7.6396032e-07, cumulative = -1.908223e-06
smoothSolver:  Solving for nuTilda, Initial residual = 2.3624338e-05, Final residual = 9.6862239e-09, No Iterations 10
ExecutionTime = 10.27 s  ClockTime = 10 s

nearWallFields nearWallFields1 write:
    Sampling fields to 45
forces forces1 write:
    Sum of forces
        Total    : (5.6217701 104.3088 -1.6965086e-19)
        Pressure : (5.0720134 104.21099 -4.6469545e-19)
        Viscous  : (0.54975677 0.097810385 2.9504458e-19)
    Sum of moments
        Total    : (-5.2154398 0.28108851 56.949669)
        Pressure : (-5.2105493 0.25360067 56.993232)
        Viscous  : (-0.0048905192 0.027487839 -0.043562155)
Time = 46

smoothSolver:  Solving for Ux, Initial residual = 5.140521e-05, Final residual = 3.5047699e-08, No Iterations 8
smoothSolver:  Solving for Uy, Initial residual = 0.00045127621, Final residual = 2.9797898e-07, No Iterations 7
GAMG:  Solving for p, Initial residual = 0.0029887839, Final residual = 2.7894897e-06, No Iterations 41
time step continuity errors : sum local = 3.8106339e-06, global = -7.4871575e-07, cumulative = -2.6569388e-06
smoothSolver:  Solving for nuTilda, Initial residual = 2.5233139e-05, Final residual = 1.0289265e-08, No Iterations 10
ExecutionTime = 10.43 s  ClockTime = 11 s

nearWallFields nearWallFields1 write:
    Sampling fields to 46
forces forces1 write:
    Sum of forces
        Total    : (5.5978397 104.34741 -1.6188156e-19)
        Pressure : (5.047927 104.24958 -4.6012349e-19)
        Viscous  : (0.54991268 0.097823097 2.9824193e-19)
    Sum of moments
        Total    : (-5.2173703 0.27989199 56.959228)
        Pressure : (-5.2124791 0.25239635 57.002807)
        Viscous  : (-0.0048911549 0.027495634 -0.043579128)
Time = 47

smoothSolver:  Solving for Ux, Initial residual = 5.3358572e-05, Final residual = 3.6391062e-08, No Iterations 8
smoothSolver:  Solving for Uy, Initial residual = 0.00046774426, Final residual = 3.1507966e-07, No Iterations 7
GAMG:  Solving for p, Initial residual = 0.0030732981, Final residual = 2.9937734e-06, No Iterations 40
time step continuity errors : sum local = 4.0927688e-06, global = -1.0124952e-06, cumulative = -3.6694339e-06
smoothSolver:  Solving for nuTilda, Initial residual = 2.6704783e-05, Final residual = 1.0915785e-08, No Iterations 10
ExecutionTime = 10.56 s  ClockTime = 11 s

nearWallFields nearWallFields1 write:
    Sampling fields to 47
forces forces1 write:
    Sum of forces
        Total    : (5.5741106 104.39111 -1.7583431e-19)
        Pressure : (5.0239968 104.29338 -4.5521062e-19)
        Viscous  : (0.55011376 0.097736075 2.7937631e-19)
    Sum of moments
        Total    : (-5.2195556 0.27870553 56.971508)
        Pressure : (-5.2146688 0.25119984 57.015153)
        Viscous  : (-0.0048868037 0.027505688 -0.043645299)
Time = 48

smoothSolver:  Solving for Ux, Initial residual = 5.5306256e-05, Final residual = 3.781894e-08, No Iterations 8
smoothSolver:  Solving for Uy, Initial residual = 0.00048428933, Final residual = 3.3505608e-07, No Iterations 7
GAMG:  Solving for p, Initial residual = 0.0031633121, Final residual = 3.1007824e-06, No Iterations 41
time step continuity errors : sum local = 4.242238e-06, global = 1.1271992e-06, cumulative = -2.5422347e-06
smoothSolver:  Solving for nuTilda, Initial residual = 2.8311586e-05, Final residual = 1.1564746e-08, No Iterations 10
ExecutionTime = 10.71 s  ClockTime = 11 s

nearWallFields nearWallFields1 write:
    Sampling fields to 48
forces forces1 write:
    Sum of forces
        Total    : (5.5506828 104.43572 -1.6113205e-19)
        Pressure : (5.0004481 104.33795 -4.5069226e-19)
        Viscous  : (0.5502347 0.097765322 2.8956021e-19)
    Sum of moments
        Total    : (-5.2217858 0.27753414 56.984954)
        Pressure : (-5.2168975 0.25002241 57.028602)
        Viscous  : (-0.0048882661 0.027511735 -0.043648486)
Time = 49

smoothSolver:  Solving for Ux, Initial residual = 5.7184594e-05, Final residual = 3.9154942e-08, No Iterations 8
smoothSolver:  Solving for Uy, Initial residual = 0.00050070676, Final residual = 3.5547479e-07, No Iterations 7
GAMG:  Solving for p, Initial residual = 0.0032358711, Final residual = 2.8740401e-06, No Iterations 39
time step continuity errors : sum local = 3.9353797e-06, global = 8.8532513e-07, cumulative = -1.6569096e-06
smoothSolver:  Solving for nuTilda, Initial residual = 2.9856908e-05, Final residual = 1.2245182e-08, No Iterations 10
ExecutionTime = 10.84 s  ClockTime = 11 s

nearWallFields nearWallFields1 write:
    Sampling fields to 49
forces forces1 write:
    Sum of forces
        Total    : (5.5278731 104.47796 -1.6466494e-19)
        Pressure : (4.9773424 104.38029 -4.4646959e-19)
        Viscous  : (0.55053069 0.097667871 2.8180465e-19)
    Sum of moments
        Total    : (-5.2238979 0.27639365 56.997239)
        Pressure : (-5.2190145 0.24886712 57.040972)
        Viscous  : (-0.0048833935 0.027526534 -0.04373309)
Time = 50

smoothSolver:  Solving for Ux, Initial residual = 5.9156656e-05, Final residual = 4.0585408e-08, No Iterations 8
smoothSolver:  Solving for Uy, Initial residual = 0.00051659478, Final residual = 3.7864456e-07, No Iterations 7
GAMG:  Solving for p, Initial residual = 0.0033461051, Final residual = 3.3051338e-06, No Iterations 35
time step continuity errors : sum local = 4.5288225e-06, global = -1.0972249e-06, cumulative = -2.7541345e-06
smoothSolver:  Solving for nuTilda, Initial residual = 3.1717857e-05, Final residual = 1.2949932e-08, No Iterations 10
ExecutionTime = 10.97 s  ClockTime = 11 s

nearWallFields nearWallFields1 write:
    Sampling fields to 50
forces forces1 write:
    Sum of forces
        Total    : (5.5049579 104.51366 -1.509071e-19)
        Pressure : (4.9542329 104.41599 -4.4315916e-19)
        Viscous  : (0.55072494 0.097672587 2.9225207e-19)
    Sum of moments
        Total    : (-5.225683 0.27524789 57.006831)
        Pressure : (-5.2207994 0.24771165 57.05059)
        Viscous  : (-0.0048836293 0.027536247 -0.043758572)
Time = 51

smoothSolver:  Solving for Ux, Initial residual = 6.1022579e-05, Final residual = 4.2038249e-08, No Iterations 8
smoothSolver:  Solving for Uy, Initial residual = 0.00053238266, Final residual = 4.0233468e-07, No Iterations 7
GAMG:  Solving for p, Initial residual = 0.0034495855, Final residual = 3.2561308e-06, No Iterations 37
time step continuity errors : sum local = 4.4646219e-06, global = -1.0302845e-06, cumulative = -3.7844189e-06
smoothSolver:  Solving for nuTilda, Initial residual = 3.3575664e-05, Final residual = 1.3696415e-08, No Iterations 10
ExecutionTime = 11.09 s  ClockTime = 11 s

nearWallFields nearWallFields1 write:
    Sampling fields to 51
forces forces1 write:
    Sum of forces
        Total    : (5.4815852 104.54305 -1.6048369e-19)
        Pressure : (4.9306501 104.44545 -4.4033362e-19)
        Viscous  : (0.55093513 0.097594686 2.7984992e-19)
    Sum of moments
        Total    : (-5.2271523 0.27407926 57.013174)
        Pressure : (-5.2222725 0.2465325 57.056993)
        Viscous  : (-0.0048797343 0.027546756 -0.04381905)
Time = 52

smoothSolver:  Solving for Ux, Initial residual = 6.2872503e-05, Final residual = 4.363676e-08, No Iterations 8
smoothSolver:  Solving for Uy, Initial residual = 0.00054914689, Final residual = 4.2827535e-07, No Iterations 7
GAMG:  Solving for p, Initial residual = 0.0035378888, Final residual = 3.2430015e-06, No Iterations 37
time step continuity errors : sum local = 4.4487614e-06, global = -1.0314514e-06, cumulative = -4.8158704e-06
smoothSolver:  Solving for nuTilda, Initial residual = 3.5545006e-05, Final residual = 1.4481476e-08, No Iterations 10
ExecutionTime = 11.24 s  ClockTime = 11 s

nearWallFields nearWallFields1 write:
    Sampling fields to 52
forces forces1 write:
    Sum of forces
        Total    : (5.4578711 104.57085 -1.469469e-19)
        Pressure : (4.9067876 104.47323 -4.3804807e-19)
        Viscous  : (0.55108353 0.097618861 2.9110116e-19)
    Sum of moments
        Total    : (-5.2285425 0.27289355 57.019071)
        Pressure : (-5.2236616 0.24533938 57.062899)
        Viscous  : (-0.0048809431 0.027554176 -0.043828055)
Time = 53

smoothSolver:  Solving for Ux, Initial residual = 6.4865896e-05, Final residual = 4.5235146e-08, No Iterations 8
smoothSolver:  Solving for Uy, Initial residual = 0.0005655705, Final residual = 4.5414914e-07, No Iterations 7
GAMG:  Solving for p, Initial residual = 0.0036158515, Final residual = 3.3138062e-06, No Iterations 37
time step continuity errors : sum local = 4.548523e-06, global = -1.052206e-06, cumulative = -5.8680763e-06
smoothSolver:  Solving for nuTilda, Initial residual = 3.743825e-05, Final residual = 1.5309406e-08, No Iterations 10
ExecutionTime = 11.37 s  ClockTime = 12 s

nearWallFields nearWallFields1 write:
    Sampling fields to 53
forces forces1 write:
    Sum of forces
        Total    : (5.4348018 104.60119 -1.510371e-19)
        Pressure : (4.8833985 104.50367 -4.3570694e-19)
        Viscous  : (0.55140325 0.097517773 2.8466984e-19)
    Sum of moments
        Total    : (-5.2300596 0.27174009 57.026126)
        Pressure : (-5.2251837 0.24416993 57.070043)
        Viscous  : (-0.0048758886 0.027570162 -0.043917229)
Time = 54

smoothSolver:  Solving for Ux, Initial residual = 6.6817454e-05, Final residual = 4.6940731e-08, No Iterations 8
smoothSolver:  Solving for Uy, Initial residual = 0.00058195298, Final residual = 4.8344119e-07, No Iterations 7
GAMG:  Solving for p, Initial residual = 0.0037421776, Final residual = 3.4597554e-06, No Iterations 30
time step continuity errors : sum local = 4.7514395e-06, global = 1.223865e-06, cumulative = -4.6442113e-06
smoothSolver:  Solving for nuTilda, Initial residual = 3.9620876e-05, Final residual = 1.6167701e-08, No Iterations 10
ExecutionTime = 11.49 s  ClockTime = 12 s

nearWallFields nearWallFields1 write:
    Sampling fields to 54
forces forces1 write:
    Sum of forces
        Total    : (5.4120949 104.63301 -1.3594897e-19)
        Pressure : (4.8604425 104.5355 -4.3375955e-19)
        Viscous  : (0.5516524 0.097504919 2.9781057e-19)
    Sum of moments
        Total    : (-5.2316503 0.27060475 57.034509)
        Pressure : (-5.2267751 0.24302213 57.078467)
        Viscous  : (-0.004875246 0.02758262 -0.043958897)
Time = 55

smoothSolver:  Solving for Ux, Initial residual = 6.8683285e-05, Final residual = 4.8647338e-08, No Iterations 8
smoothSolver:  Solving for Uy, Initial residual = 0.00059869899, Final residual = 5.1413838e-07, No Iterations 7
GAMG:  Solving for p, Initial residual = 0.0038481491, Final residual = 3.453742e-06, No Iterations 34
time step continuity errors : sum local = 4.7462382e-06, global = -1.0370388e-06, cumulative = -5.68125e-06
smoothSolver:  Solving for nuTilda, Initial residual = 4.199989e-05, Final residual = 1.7074793e-08, No Iterations 10
ExecutionTime = 11.65 s  ClockTime = 12 s

nearWallFields nearWallFields1 write:
    Sampling fields to 55
forces forces1 write:
    Sum of forces
        Total    : (5.3894261 104.66325 -1.4516439e-19)
        Pressure : (4.83755 104.56582 -4.3210428e-19)
        Viscous  : (0.55187615 0.097429891 2.8693988e-19)
    Sum of moments
        Total    : (-5.2331623 0.26947131 57.042405)
        Pressure : (-5.2282908 0.2418775 57.086424)
        Viscous  : (-0.0048714946 0.027593807 -0.044018296)
Time = 56

smoothSolver:  Solving for Ux, Initial residual = 7.0625573e-05, Final residual = 5.0475263e-08, No Iterations 8
smoothSolver:  Solving for Uy, Initial residual = 0.00061527991, Final residual = 5.4723489e-07, No Iterations 7
GAMG:  Solving for p, Initial residual = 0.003929744, Final residual = 3.9258866e-06, No Iterations 32
time step continuity errors : sum local = 5.3979495e-06, global = -1.2076473e-06, cumulative = -6.8888973e-06
smoothSolver:  Solving for nuTilda, Initial residual = 4.4375748e-05, Final residual = 1.8031899e-08, No Iterations 10
ExecutionTime = 11.81 s  ClockTime = 12 s

nearWallFields nearWallFields1 write:
    Sampling fields to 56
forces forces1 write:
    Sum of forces
        Total    : (5.3671531 104.69177 -1.3134214e-19)
        Pressure : (4.8150765 104.59434 -4.3116255e-19)
        Viscous  : (0.55207665 0.097431501 2.9982041e-19)
    Sum of moments
        Total    : (-5.2345887 0.26835766 57.050143)
        Pressure : (-5.2297171 0.24075382 57.09419)
        Viscous  : (-0.004871575 0.027603833 -0.044047134)
Time = 57

smoothSolver:  Solving for Ux, Initial residual = 7.2606401e-05, Final residual = 5.2285948e-08, No Iterations 8
smoothSolver:  Solving for Uy, Initial residual = 0.00063148479, Final residual = 5.8013878e-07, No Iterations 7
GAMG:  Solving for p, Initial residual = 0.0040281909, Final residual = 3.7247361e-06, No Iterations 32
time step continuity errors : sum local = 5.1243249e-06, global = -1.0687129e-06, cumulative = -7.9576103e-06
smoothSolver:  Solving for nuTilda, Initial residual = 4.6675322e-05, Final residual = 1.9038498e-08, No Iterations 10
ExecutionTime = 11.95 s  ClockTime = 12 s

nearWallFields nearWallFields1 write:
    Sampling fields to 57
forces forces1 write:
    Sum of forces
        Total    : (5.3453246 104.71852 -1.3646772e-19)
        Pressure : (4.7929005 104.62119 -4.3046479e-19)
        Viscous  : (0.55242409 0.097329312 2.9399706e-19)
    Sum of moments
        Total    : (-5.235926 0.26726623 57.056769)
        Pressure : (-5.2310595 0.23964503 57.100908)
        Viscous  : (-0.0048664656 0.027621204 -0.04413863)
Time = 58

smoothSolver:  Solving for Ux, Initial residual = 7.4586337e-05, Final residual = 5.4266711e-08, No Iterations 8
smoothSolver:  Solving for Uy, Initial residual = 0.00064798547, Final residual = 6.1654834e-07, No Iterations 7
GAMG:  Solving for p, Initial residual = 0.0041476327, Final residual = 3.8964818e-06, No Iterations 27
time step continuity errors : sum local = 5.3629132e-06, global = 1.0493203e-06, cumulative = -6.90829e-06
smoothSolver:  Solving for nuTilda, Initial residual = 4.950101e-05, Final residual = 2.0075537e-08, No Iterations 10
ExecutionTime = 12.08 s  ClockTime = 12 s

nearWallFields nearWallFields1 write:
    Sampling fields to 58
forces forces1 write:
    Sum of forces
        Total    : (5.323625 104.74233 -1.2669161e-19)
        Pressure : (4.7709253 104.64503 -4.3037714e-19)
        Viscous  : (0.55269966 0.097301917 3.0368553e-19)
    Sum of moments
        Total    : (-5.2371164 0.26618125 57.062262)
        Pressure : (-5.2322513 0.23854627 57.106455)
        Viscous  : (-0.0048650959 0.027634983 -0.044192765)
Time = 59

smoothSolver:  Solving for Ux, Initial residual = 7.6614558e-05, Final residual = 5.6353157e-08, No Iterations 8
smoothSolver:  Solving for Uy, Initial residual = 0.00066552153, Final residual = 6.547058e-07, No Iterations 7
GAMG:  Solving for p, Initial residual = 0.0042430269, Final residual = 3.8969098e-06, No Iterations 30
time step continuity errors : sum local = 5.3660411e-06, global = 1.1252093e-06, cumulative = -5.7830807e-06
smoothSolver:  Solving for nuTilda, Initial residual = 5.2373746e-05, Final residual = 2.1197566e-08, No Iterations 10
ExecutionTime = 12.25 s  ClockTime = 12 s

nearWallFields nearWallFields1 write:
    Sampling fields to 59
forces forces1 write:
    Sum of forces
        Total    : (5.3023734 104.76393 -1.3956822e-19)
        Pressure : (4.7494132 104.66672 -4.3062009e-19)
        Viscous  : (0.55296017 0.097214917 2.9105187e-19)
    Sum of moments
        Total    : (-5.2381966 0.26511867 57.067074)
        Pressure : (-5.2333359 0.23747066 57.111337)
        Viscous  : (-0.0048607458 0.027648008 -0.044262938)
Time = 60

smoothSolver:  Solving for Ux, Initial residual = 7.8588539e-05, Final residual = 5.8813039e-08, No Iterations 8
smoothSolver:  Solving for Uy, Initial residual = 0.00068392062, Final residual = 3.6085058e-07, No Iterations 8
GAMG:  Solving for p, Initial residual = 0.0043209292, Final residual = 4.1404478e-06, No Iterations 28
time step continuity errors : sum local = 5.7033276e-06, global = 1.2425713e-06, cumulative = -4.5405094e-06
smoothSolver:  Solving for nuTilda, Initial residual = 5.5310169e-05, Final residual = 2.2365941e-08, No Iterations 10
ExecutionTime = 12.39 s  ClockTime = 13 s

nearWallFields nearWallFields1 write:
    Sampling fields to 60
forces forces1 write:
    Sum of forces
        Total    : (5.281847 104.78657 -1.2932216e-19)
        Pressure : (4.7286088 104.68939 -4.3126834e-19)
        Viscous  : (0.55323812 0.097180313 3.0194618e-19)
    Sum of moments
        Total    : (-5.2393285 0.26409235 57.073024)
        Pressure : (-5.2344695 0.23643044 57.117347)
        Viscous  : (-0.0048590157 0.027661906 -0.044322579)
Time = 61

smoothSolver:  Solving for Ux, Initial residual = 8.0727216e-05, Final residual = 6.1752318e-08, No Iterations 8
smoothSolver:  Solving for Uy, Initial residual = 0.00070227111, Final residual = 3.8325117e-07, No Iterations 8
GAMG:  Solving for p, Initial residual = 0.0044285083, Final residual = 3.8319754e-06, No Iterations 28
time step continuity errors : sum local = 5.2807966e-06, global = 9.5657798e-07, cumulative = -3.5839314e-06
smoothSolver:  Solving for nuTilda, Initial residual = 5.8220625e-05, Final residual = 2.3561592e-08, No Iterations 10
ExecutionTime = 12.51 s  ClockTime = 13 s

nearWallFields nearWallFields1 write:
    Sampling fields to 61
forces forces1 write:
    Sum of forces
        Total    : (5.2618449 104.81093 -1.3527435e-19)
        Pressure : (4.7082579 104.71385 -4.3179954e-19)
        Viscous  : (0.55358696 0.09708076 2.9652519e-19)
    Sum of moments
        Total    : (-5.2405464 0.26309224 57.079641)
        Pressure : (-5.2356924 0.2354129 57.124053)
        Viscous  : (-0.004854038 0.027679348 -0.044412024)
Time = 62

smoothSolver:  Solving for Ux, Initial residual = 8.2957964e-05, Final residual = 6.5365037e-08, No Iterations 8
smoothSolver:  Solving for Uy, Initial residual = 0.00072074027, Final residual = 4.0793704e-07, No Iterations 8
GAMG:  Solving for p, Initial residual = 0.0045432047, Final residual = 3.8984211e-06, No Iterations 23
time step continuity errors : sum local = 5.3746477e-06, global = 8.9913332e-07, cumulative = -2.6847981e-06
smoothSolver:  Solving for nuTilda, Initial residual = 6.1253555e-05, Final residual = 2.482607e-08, No Iterations 10
ExecutionTime = 12.63 s  ClockTime = 13 s

nearWallFields nearWallFields1 write:
    Sampling fields to 62
forces forces1 write:
    Sum of forces
        Total    : (5.2422397 104.83458 -1.2501205e-19)
        Pressure : (4.6883409 104.73755 -4.3264327e-19)
        Viscous  : (0.55389882 0.097034892 3.0763122e-19)
    Sum of moments
        Total    : (-5.2417291 0.26211199 57.086291)
        Pressure : (-5.2368773 0.23441704 57.130772)
        Viscous  : (-0.0048517446 0.027694941 -0.04448163)
Time = 63

smoothSolver:  Solving for Ux, Initial residual = 8.5201194e-05, Final residual = 6.9425586e-08, No Iterations 8
smoothSolver:  Solving for Uy, Initial residual = 0.00073977174, Final residual = 4.346015e-07, No Iterations 8
GAMG:  Solving for p, Initial residual = 0.0046418259, Final residual = 4.6307248e-06, No Iterations 21
time step continuity errors : sum local = 6.3873147e-06, global = 1.1078091e-06, cumulative = -1.5769889e-06
smoothSolver:  Solving for nuTilda, Initial residual = 6.4590673e-05, Final residual = 2.6140324e-08, No Iterations 10
ExecutionTime = 12.74 s  ClockTime = 13 s

nearWallFields nearWallFields1 write:
    Sampling fields to 63
forces forces1 write:
    Sum of forces
        Total    : (5.2230177 104.85557 -1.3947173e-19)
        Pressure : (4.6688362 104.75863 -4.3363003e-19)
        Viscous  : (0.55418147 0.096938884 2.9415829e-19)
    Sum of moments
        Total    : (-5.2427783 0.26115088 57.091862)
        Pressure : (-5.2379313 0.23344181 57.136421)
        Viscous  : (-0.0048469442 0.027709074 -0.044559283)
Time = 64

smoothSolver:  Solving for Ux, Initial residual = 8.7373729e-05, Final residual = 7.3881899e-08, No Iterations 8
smoothSolver:  Solving for Uy, Initial residual = 0.00075999406, Final residual = 4.6356797e-07, No Iterations 8
GAMG:  Solving for p, Initial residual = 0.0047189287, Final residual = 4.0716275e-06, No Iterations 21
time step continuity errors : sum local = 5.6179682e-06, global = 8.818214e-07, cumulative = -6.9516753e-07
smoothSolver:  Solving for nuTilda, Initial residual = 6.8251486e-05, Final residual = 2.7492651e-08, No Iterations 10
ExecutionTime = 12.85 s  ClockTime = 13 s

nearWallFields nearWallFields1 write:
    Sampling fields to 64
forces forces1 write:
    Sum of forces
        Total    : (5.2042532 104.87658 -1.3067758e-19)
        Pressure : (4.6497218 104.7797 -4.3467739e-19)
        Viscous  : (0.55453145 0.096874567 3.0399981e-19)
    Sum of moments
        Total    : (-5.2438289 0.26021266 57.097578)
        Pressure : (-5.2389851 0.23248609 57.142222)
        Viscous  : (-0.0048437284 0.027726573 -0.044644069)
Time = 65

smoothSolver:  Solving for Ux, Initial residual = 8.9708456e-05, Final residual = 7.8521532e-08, No Iterations 8
smoothSolver:  Solving for Uy, Initial residual = 0.00078105414, Final residual = 4.9409968e-07, No Iterations 8
GAMG:  Solving for p, Initial residual = 0.0048154241, Final residual = 4.6833121e-06, No Iterations 20
time step continuity errors : sum local = 6.4644618e-06, global = -1.0114166e-06, cumulative = -1.7065841e-06
smoothSolver:  Solving for nuTilda, Initial residual = 7.2284372e-05, Final residual = 2.8929005e-08, No Iterations 10
ExecutionTime = 12.95 s  ClockTime = 13 s

nearWallFields nearWallFields1 write:
    Sampling fields to 65
forces forces1 write:
    Sum of forces
        Total    : (5.1860036 104.89687 -1.3988123e-19)
        Pressure : (4.6311268 104.80009 -4.3560922e-19)
        Viscous  : (0.55487675 0.096776939 2.9572799e-19)
    Sum of moments
        Total    : (-5.2448435 0.25930018 57.102859)
        Pressure : (-5.2400046 0.23155634 57.147591)
        Viscous  : (-0.004838847 0.027743837 -0.044731595)
Time = 66

smoothSolver:  Solving for Ux, Initial residual = 9.2262311e-05, Final residual = 8.3463013e-08, No Iterations 8
smoothSolver:  Solving for Uy, Initial residual = 0.00080309594, Final residual = 5.2651648e-07, No Iterations 8
GAMG:  Solving for p, Initial residual = 0.0049104208, Final residual = 4.4062554e-06, No Iterations 20
time step continuity errors : sum local = 6.0840974e-06, global = -1.0331484e-06, cumulative = -2.7397325e-06
smoothSolver:  Solving for nuTilda, Initial residual = 7.6460165e-05, Final residual = 3.0422941e-08, No Iterations 10
ExecutionTime = 13.05 s  ClockTime = 13 s

nearWallFields nearWallFields1 write:
    Sampling fields to 66
forces forces1 write:
    Sum of forces
        Total    : (5.1680758 104.91575 -1.3193497e-19)
        Pressure : (4.6128679 104.81903 -4.3654345e-19)
        Viscous  : (0.55520792 0.096724806 3.0460848e-19)
    Sum of moments
        Total    : (-5.2457877 0.25840379 57.107579)
        Pressure : (-5.2409515 0.23064339 57.152386)
        Viscous  : (-0.0048362403 0.027760396 -0.044806351)
Time = 67

smoothSolver:  Solving for Ux, Initial residual = 9.4758027e-05, Final residual = 8.8584938e-08, No Iterations 8
smoothSolver:  Solving for Uy, Initial residual = 0.00082488262, Final residual = 5.6006815e-07, No Iterations 8
GAMG:  Solving for p, Initial residual = 0.0049978336, Final residual = 4.9859774e-06, No Iterations 21
time step continuity errors : sum local = 6.8873495e-06, global = 1.2023366e-06, cumulative = -1.5373959e-06
smoothSolver:  Solving for nuTilda, Initial residual = 8.0450727e-05, Final residual = 3.19631e-08, No Iterations 10
ExecutionTime = 13.16 s  ClockTime = 13 s

nearWallFields nearWallFields1 write:
    Sampling fields to 67
forces forces1 write:
    Sum of forces
        Total    : (5.1503873 104.93214 -1.491874e-19)
        Pressure : (4.5948545 104.83552 -4.3718016e-19)
        Viscous  : (0.55553288 0.096612247 2.8799275e-19)
    Sum of moments
        Total    : (-5.2466068 0.25751937 57.110981)
        Pressure : (-5.2417761 0.22974272 57.155879)
        Viscous  : (-0.0048306124 0.027776644 -0.044897832)
Time = 68

smoothSolver:  Solving for Ux, Initial residual = 9.7103165e-05, Final residual = 9.386923e-08, No Iterations 8
smoothSolver:  Solving for Uy, Initial residual = 0.00084631328, Final residual = 5.9512269e-07, No Iterations 8
GAMG:  Solving for p, Initial residual = 0.0050550745, Final residual = 4.5507148e-06, No Iterations 22
time step continuity errors : sum local = 6.2876272e-06, global = -9.2968705e-07, cumulative = -2.4670829e-06
smoothSolver:  Solving for nuTilda, Initial residual = 8.4914707e-05, Final residual = 3.354596e-08, No Iterations 10
ExecutionTime = 13.27 s  ClockTime = 13 s

nearWallFields nearWallFields1 write:
    Sampling fields to 68
forces forces1 write:
    Sum of forces
        Total    : (5.1333994 104.94727 -1.4300069e-19)
        Pressure : (4.5775432 104.85071 -4.3770438e-19)
        Viscous  : (0.55585619 0.096565611 2.947037e-19)
    Sum of moments
        Total    : (-5.2473636 0.25666997 57.113834)
        Pressure : (-5.2425353 0.22887716 57.158802)
        Viscous  : (-0.0048282806 0.02779281 -0.044967666)
Time = 69

smoothSolver:  Solving for Ux, Initial residual = 9.9364787e-05, Final residual = 9.9203075e-08, No Iterations 8
smoothSolver:  Solving for Uy, Initial residual = 0.00086898094, Final residual = 6.3106194e-07, No Iterations 8
GAMG:  Solving for p, Initial residual = 0.0051312674, Final residual = 4.8362378e-06, No Iterations 22
time step continuity errors : sum local = 6.6840173e-06, global = -8.6449783e-07, cumulative = -3.3315808e-06
smoothSolver:  Solving for nuTilda, Initial residual = 8.9254657e-05, Final residual = 3.5199329e-08, No Iterations 10
ExecutionTime = 13.4 s  ClockTime = 14 s

nearWallFields nearWallFields1 write:
    Sampling fields to 69
forces forces1 write:
    Sum of forces
        Total    : (5.1167978 104.96087 -1.5368576e-19)
        Pressure : (4.5605951 104.86439 -4.3769216e-19)
        Viscous  : (0.55620268 0.096481852 2.840064e-19)
    Sum of moments
        Total    : (-5.2480435 0.25583989 57.115299)
        Pressure : (-5.2432194 0.22802976 57.160343)
        Viscous  : (-0.0048240926 0.027810134 -0.045044306)
Time = 70

smoothSolver:  Solving for Ux, Initial residual = 0.00010186361, Final residual = 5.8204587e-08, No Iterations 9
smoothSolver:  Solving for Uy, Initial residual = 0.00089391682, Final residual = 6.6855338e-07, No Iterations 8
GAMG:  Solving for p, Initial residual = 0.0052162107, Final residual = 4.3778381e-06, No Iterations 22
time step continuity errors : sum local = 6.0518203e-06, global = -7.407049e-07, cumulative = -4.0722857e-06
smoothSolver:  Solving for nuTilda, Initial residual = 9.4032496e-05, Final residual = 3.6938127e-08, No Iterations 10
ExecutionTime = 13.52 s  ClockTime = 14 s

nearWallFields nearWallFields1 write:
    Sampling fields to 70
forces forces1 write:
    Sum of forces
        Total    : (5.099939 104.97188 -1.4648079e-19)
        Pressure : (4.5434371 104.87541 -4.3711718e-19)
        Viscous  : (0.55650187 0.096465833 2.9063639e-19)
    Sum of moments
        Total    : (-5.2485938 0.25499695 57.114677)
        Pressure : (-5.2437705 0.22717186 57.159767)
        Viscous  : (-0.0048232916 0.027825094 -0.045089963)
Time = 71

smoothSolver:  Solving for Ux, Initial residual = 0.0001044762, Final residual = 6.1247974e-08, No Iterations 9
smoothSolver:  Solving for Uy, Initial residual = 0.00091940762, Final residual = 7.0725894e-07, No Iterations 8
GAMG:  Solving for p, Initial residual = 0.0053019934, Final residual = 5.1652557e-06, No Iterations 22
time step continuity errors : sum local = 7.1422488e-06, global = -9.2696073e-07, cumulative = -4.9992464e-06
[...]
smoothSolver:  Solving for nuTilda, Initial residual = 2.7437522e-07, Final residual = 1.0328278e-10, No Iterations 6
ExecutionTime = 315.5 s  ClockTime = 324 s

nearWallFields nearWallFields1 write:
    Sampling fields to 2008
forces forces1 write:
    Sum of forces
        Total    : (4.3568957 102.51894 2.8008255e-20)
        Pressure : (3.7837365 102.42192 -2.556214e-19)
        Viscous  : (0.57315922 0.09702321 2.8362965e-19)
    Sum of moments
        Total    : (-5.125947 0.21784479 53.21004)
        Pressure : (-5.1210958 0.18918683 53.256271)
        Viscous  : (-0.0048511605 0.028657961 -0.046230749)
Time = 2009

smoothSolver:  Solving for Ux, Initial residual = 1.0735435e-07, Final residual = 5.9357579e-11, No Iterations 9
smoothSolver:  Solving for Uy, Initial residual = 2.1629104e-07, Final residual = 1.5090407e-10, No Iterations 10
GAMG:  Solving for p, Initial residual = 0.00010695489, Final residual = 1.0025592e-07, No Iterations 35
time step continuity errors : sum local = 1.2588779e-07, global = -3.0457614e-09, cumulative = -2.961222e-05
smoothSolver:  Solving for nuTilda, Initial residual = 2.1020482e-07, Final residual = 1.0355778e-10, No Iterations 6
ExecutionTime = 315.63 s  ClockTime = 324 s

nearWallFields nearWallFields1 write:
    Sampling fields to 2009
forces forces1 write:
    Sum of forces
        Total    : (4.356929 102.51889 2.2772388e-20)
        Pressure : (3.7837846 102.42191 -2.5558475e-19)
        Viscous  : (0.5731444 0.096981065 2.7835714e-19)
    Sum of moments
        Total    : (-5.1259446 0.21784645 53.20992)
        Pressure : (-5.1210956 0.18918923 53.256175)
        Viscous  : (-0.0048490533 0.02865722 -0.046254613)
Time = 2010

smoothSolver:  Solving for Ux, Initial residual = 1.0431965e-07, Final residual = 6.2278432e-11, No Iterations 9
smoothSolver:  Solving for Uy, Initial residual = 2.0939117e-07, Final residual = 1.5660259e-10, No Iterations 10
GAMG:  Solving for p, Initial residual = 0.00010489972, Final residual = 1.0087535e-07, No Iterations 27
time step continuity errors : sum local = 1.2665883e-07, global = 6.8032648e-09, cumulative = -2.9605417e-05
smoothSolver:  Solving for nuTilda, Initial residual = 2.5625068e-07, Final residual = 1.0202327e-10, No Iterations 6
ExecutionTime = 315.74 s  ClockTime = 324 s

nearWallFields nearWallFields1 write:
    Sampling fields to 2010
forces forces1 write:
    Sum of forces
        Total    : (4.3570153 102.51904 3.1815813e-20)
        Pressure : (3.7838245 102.42202 -2.5563963e-19)
        Viscous  : (0.57319078 0.09701896 2.8745544e-19)
    Sum of moments
        Total    : (-5.125952 0.21785077 53.210065)
        Pressure : (-5.121101 0.18919123 53.256304)
        Viscous  : (-0.004850948 0.028659539 -0.046238669)
Time = 2011

smoothSolver:  Solving for Ux, Initial residual = 1.0130045e-07, Final residual = 5.8720465e-11, No Iterations 9
smoothSolver:  Solving for Uy, Initial residual = 2.1088346e-07, Final residual = 1.3269453e-10, No Iterations 10
GAMG:  Solving for p, Initial residual = 0.00011645667, Final residual = 9.8777859e-08, No Iterations 27
time step continuity errors : sum local = 1.240334e-07, global = -7.0922524e-09, cumulative = -2.9612509e-05
smoothSolver:  Solving for nuTilda, Initial residual = 2.2232218e-07, Final residual = 1.0014427e-10, No Iterations 6
ExecutionTime = 315.85 s  ClockTime = 324 s

nearWallFields nearWallFields1 write:
    Sampling fields to 2011
forces forces1 write:
    Sum of forces
        Total    : (4.3568501 102.51886 1.8365771e-20)
        Pressure : (3.7837332 102.42188 -2.5554392e-19)
        Viscous  : (0.57311687 0.096981382 2.7390969e-19)
    Sum of moments
        Total    : (-5.125943 0.2178425 53.20991)
        Pressure : (-5.121094 0.18918666 53.25616)
        Viscous  : (-0.0048490691 0.028655844 -0.046250214)
Time = 2012

smoothSolver:  Solving for Ux, Initial residual = 1.1094239e-07, Final residual = 6.1029561e-11, No Iterations 9
smoothSolver:  Solving for Uy, Initial residual = 2.2594608e-07, Final residual = 1.4061189e-10, No Iterations 10
GAMG:  Solving for p, Initial residual = 0.00010749903, Final residual = 1.0139472e-07, No Iterations 32
time step continuity errors : sum local = 1.2731092e-07, global = -5.3078731e-09, cumulative = -2.9617817e-05
smoothSolver:  Solving for nuTilda, Initial residual = 2.772247e-07, Final residual = 1.0740045e-10, No Iterations 6
ExecutionTime = 315.99 s  ClockTime = 325 s

nearWallFields nearWallFields1 write:
    Sampling fields to 2012
forces forces1 write:
    Sum of forces
        Total    : (4.3568983 102.51894 2.8107987e-20)
        Pressure : (3.7837398 102.42192 -2.5561714e-19)
        Viscous  : (0.57315846 0.097022937 2.8372513e-19)
    Sum of moments
        Total    : (-5.1259472 0.21784492 53.210041)
        Pressure : (-5.121096 0.18918699 53.256272)
        Viscous  : (-0.0048511468 0.028657923 -0.046230993)
Time = 2013

smoothSolver:  Solving for Ux, Initial residual = 1.0941068e-07, Final residual = 6.1290237e-11, No Iterations 9
smoothSolver:  Solving for Uy, Initial residual = 2.2123894e-07, Final residual = 1.6296722e-10, No Iterations 10
GAMG:  Solving for p, Initial residual = 0.00010724295, Final residual = 1.0504018e-07, No Iterations 36
time step continuity errors : sum local = 1.3189536e-07, global = 6.9709437e-09, cumulative = -2.9610846e-05
smoothSolver:  Solving for nuTilda, Initial residual = 2.0868871e-07, Final residual = 1.0600094e-10, No Iterations 6
ExecutionTime = 316.11 s  ClockTime = 325 s

nearWallFields nearWallFields1 write:
    Sampling fields to 2013
forces forces1 write:
    Sum of forces
        Total    : (4.3569457 102.51897 2.2862047e-20)
        Pressure : (3.7837968 102.42199 -2.5557368e-19)
        Viscous  : (0.57314892 0.096980509 2.7843572e-19)
    Sum of moments
        Total    : (-5.1259485 0.21784729 53.209967)
        Pressure : (-5.1210995 0.18918984 53.256222)
        Viscous  : (-0.0048490255 0.028657446 -0.046255028)
Time = 2014

smoothSolver:  Solving for Ux, Initial residual = 1.0573156e-07, Final residual = 6.2310977e-11, No Iterations 9
smoothSolver:  Solving for Uy, Initial residual = 2.0344405e-07, Final residual = 1.32726e-10, No Iterations 10
GAMG:  Solving for p, Initial residual = 0.00010606009, Final residual = 9.8142261e-08, No Iterations 28
time step continuity errors : sum local = 1.2322747e-07, global = -1.3028512e-09, cumulative = -2.9612149e-05
smoothSolver:  Solving for nuTilda, Initial residual = 2.5855511e-07, Final residual = 1.036444e-10, No Iterations 6
ExecutionTime = 316.23 s  ClockTime = 325 s

nearWallFields nearWallFields1 write:
    Sampling fields to 2014
forces forces1 write:
    Sum of forces
        Total    : (4.3570046 102.51902 3.166484e-20)
        Pressure : (3.783819 102.422 -2.5564246e-19)
        Viscous  : (0.57318559 0.097018425 2.873073e-19)
    Sum of moments
        Total    : (-5.125951 0.21785023 53.210055)
        Pressure : (-5.1211001 0.18919095 53.256294)
        Viscous  : (-0.0048509212 0.028659279 -0.046239108)
Time = 2015

smoothSolver:  Solving for Ux, Initial residual = 1.0131432e-07, Final residual = 6.3470504e-11, No Iterations 9
smoothSolver:  Solving for Uy, Initial residual = 2.1063685e-07, Final residual = 1.3723986e-10, No Iterations 10
GAMG:  Solving for p, Initial residual = 0.00011264283, Final residual = 1.0925872e-07, No Iterations 28
time step continuity errors : sum local = 1.3719381e-07, global = 6.0510029e-09, cumulative = -2.9606098e-05
smoothSolver:  Solving for nuTilda, Initial residual = 2.1919909e-07, Final residual = 1.0221301e-10, No Iterations 6
ExecutionTime = 316.33 s  ClockTime = 325 s

nearWallFields nearWallFields1 write:
    Sampling fields to 2015
forces forces1 write:
    Sum of forces
        Total    : (4.3568504 102.51882 1.8533752e-20)
        Pressure : (3.7837294 102.42184 -2.5554501e-19)
        Viscous  : (0.57312098 0.096980131 2.7407876e-19)
    Sum of moments
        Total    : (-5.1259411 0.21784252 53.20988)
        Pressure : (-5.1210921 0.18918647 53.256132)
        Viscous  : (-0.0048490065 0.028656049 -0.046251387)
Time = 2016

smoothSolver:  Solving for Ux, Initial residual = 1.0778681e-07, Final residual = 5.7919912e-11, No Iterations 9
smoothSolver:  Solving for Uy, Initial residual = 2.2554144e-07, Final residual = 1.4697997e-10, No Iterations 10
GAMG:  Solving for p, Initial residual = 0.00010442061, Final residual = 9.8644835e-08, No Iterations 32
time step continuity errors : sum local = 1.2385784e-07, global = -1.1885631e-09, cumulative = -2.9607287e-05
smoothSolver:  Solving for nuTilda, Initial residual = 2.7494529e-07, Final residual = 9.7089394e-11, No Iterations 6
ExecutionTime = 316.45 s  ClockTime = 325 s

nearWallFields nearWallFields1 write:
    Sampling fields to 2016
forces forces1 write:
    Sum of forces
        Total    : (4.3569002 102.51896 2.7915104e-20)
        Pressure : (3.7837385 102.42193 -2.5562533e-19)
        Viscous  : (0.57316165 0.097024676 2.8354043e-19)
    Sum of moments
        Total    : (-5.1259478 0.21784501 53.210053)
        Pressure : (-5.1210966 0.18918693 53.256283)
        Viscous  : (-0.0048512338 0.028658082 -0.046229571)
Time = 2017

smoothSolver:  Solving for Ux, Initial residual = 1.0804576e-07, Final residual = 5.9479639e-11, No Iterations 9
smoothSolver:  Solving for Uy, Initial residual = 2.1848561e-07, Final residual = 1.3351722e-10, No Iterations 10
GAMG:  Solving for p, Initial residual = 0.00010644264, Final residual = 1.0017448e-07, No Iterations 36
time step continuity errors : sum local = 1.2578594e-07, global = 6.2861126e-09, cumulative = -2.9601001e-05
smoothSolver:  Solving for nuTilda, Initial residual = 2.1191684e-07, Final residual = 1.027853e-10, No Iterations 6
ExecutionTime = 316.56 s  ClockTime = 325 s

nearWallFields nearWallFields1 write:
    Sampling fields to 2017
forces forces1 write:
    Sum of forces
        Total    : (4.3569389 102.51896 2.2938685e-20)
        Pressure : (3.7837958 102.42198 -2.5557436e-19)
        Viscous  : (0.57314317 0.096979044 2.7851305e-19)
    Sum of moments
        Total    : (-5.1259479 0.21784695 53.20997)
        Pressure : (-5.1210989 0.18918979 53.256226)
        Viscous  : (-0.0048489522 0.028657158 -0.046256143)
Time = 2018

smoothSolver:  Solving for Ux, Initial residual = 1.0592882e-07, Final residual = 6.2735353e-11, No Iterations 9
smoothSolver:  Solving for Uy, Initial residual = 2.0662778e-07, Final residual = 1.4582225e-10, No Iterations 10
GAMG:  Solving for p, Initial residual = 0.0001031771, Final residual = 9.8742396e-08, No Iterations 28
time step continuity errors : sum local = 1.2398072e-07, global = 1.1583172e-10, cumulative = -2.9600885e-05
smoothSolver:  Solving for nuTilda, Initial residual = 2.5820734e-07, Final residual = 1.0630802e-10, No Iterations 6
ExecutionTime = 316.69 s  ClockTime = 325 s

nearWallFields nearWallFields1 write:
    Sampling fields to 2018
forces forces1 write:
    Sum of forces
        Total    : (4.3570187 102.51904 3.163739e-20)
        Pressure : (3.7838257 102.42203 -2.5563785e-19)
        Viscous  : (0.57319302 0.097017602 2.8727524e-19)
    Sum of moments
        Total    : (-5.1259522 0.21785094 53.210062)
        Pressure : (-5.1211014 0.18919128 53.256302)
        Viscous  : (-0.0048508801 0.028659651 -0.046239884)
Time = 2019

smoothSolver:  Solving for Ux, Initial residual = 1.0476334e-07, Final residual = 6.7776623e-11, No Iterations 9
smoothSolver:  Solving for Uy, Initial residual = 2.2246244e-07, Final residual = 1.6201211e-10, No Iterations 10
GAMG:  Solving for p, Initial residual = 0.00012668335, Final residual = 1.178802e-07, No Iterations 27
time step continuity errors : sum local = 1.480199e-07, global = -1.7665543e-08, cumulative = -2.961855e-05
smoothSolver:  Solving for nuTilda, Initial residual = 2.2446561e-07, Final residual = 1.0991131e-10, No Iterations 6
ExecutionTime = 316.83 s  ClockTime = 325 s

nearWallFields nearWallFields1 write:
    Sampling fields to 2019
forces forces1 write:
    Sum of forces
        Total    : (4.3568162 102.51876 1.8534913e-20)
        Pressure : (3.7837123 102.42178 -2.5554547e-19)
        Viscous  : (0.57310392 0.09698368 2.7408038e-19)
    Sum of moments
        Total    : (-5.1259382 0.21784081 53.209851)
        Pressure : (-5.121089 0.18918561 53.2561)
        Viscous  : (-0.004849184 0.028655196 -0.046248268)
Time = 2020

smoothSolver:  Solving for Ux, Initial residual = 1.1196213e-07, Final residual = 6.5207362e-11, No Iterations 9
smoothSolver:  Solving for Uy, Initial residual = 2.394099e-07, Final residual = 1.6324129e-10, No Iterations 10
GAMG:  Solving for p, Initial residual = 0.000103371, Final residual = 9.8573295e-08, No Iterations 33
time step continuity errors : sum local = 1.23768e-07, global = 6.0603162e-09, cumulative = -2.961249e-05
smoothSolver:  Solving for nuTilda, Initial residual = 2.6902452e-07, Final residual = 1.0108429e-10, No Iterations 6
ExecutionTime = 316.97 s  ClockTime = 326 s

nearWallFields nearWallFields1 write:
    Sampling fields to 2020
forces forces1 write:
    Sum of forces
        Total    : (4.3569119 102.51899 2.8013546e-20)
        Pressure : (3.7837463 102.42197 -2.5562429e-19)
        Viscous  : (0.57316566 0.097024144 2.8363783e-19)
    Sum of moments
        Total    : (-5.1259497 0.2178456 53.210068)
        Pressure : (-5.1210984 0.18918731 53.256298)
        Viscous  : (-0.0048512072 0.028658283 -0.046230069)
Time = 2021

smoothSolver:  Solving for Ux, Initial residual = 1.0520398e-07, Final residual = 5.5777841e-11, No Iterations 9
smoothSolver:  Solving for Uy, Initial residual = 2.1638724e-07, Final residual = 1.4242648e-10, No Iterations 10
GAMG:  Solving for p, Initial residual = 9.5827274e-05, Final residual = 9.0959089e-08, No Iterations 38
time step continuity errors : sum local = 1.1421448e-07, global = 6.0281762e-09, cumulative = -2.9606462e-05
smoothSolver:  Solving for nuTilda, Initial residual = 2.0330138e-07, Final residual = 1.0362768e-10, No Iterations 6
ExecutionTime = 317.1 s  ClockTime = 326 s

nearWallFields nearWallFields1 write:
    Sampling fields to 2021
forces forces1 write:
    Sum of forces
        Total    : (4.3569876 102.51908 2.2695796e-20)
        Pressure : (3.7838276 102.4221 -2.5557333e-19)
        Viscous  : (0.57315993 0.096975473 2.7826913e-19)
    Sum of moments
        Total    : (-5.1259538 0.21784938 53.210025)
        Pressure : (-5.121105 0.18919138 53.256285)
        Viscous  : (-0.0048487737 0.028657996 -0.046259305)
Time = 2022

smoothSolver:  Solving for Ux, Initial residual = 1.0655579e-07, Final residual = 5.9853317e-11, No Iterations 9
smoothSolver:  Solving for Uy, Initial residual = 2.1247885e-07, Final residual = 1.4549397e-10, No Iterations 10
GAMG:  Solving for p, Initial residual = 9.9043485e-05, Final residual = 9.4167126e-08, No Iterations 30
time step continuity errors : sum local = 1.1823613e-07, global = -8.5713367e-09, cumulative = -2.9615033e-05
smoothSolver:  Solving for nuTilda, Initial residual = 2.6027874e-07, Final residual = 1.1388591e-10, No Iterations 6
ExecutionTime = 317.2 s  ClockTime = 326 s

nearWallFields nearWallFields1 write:
    Sampling fields to 2022
forces forces1 write:
    Sum of forces
        Total    : (4.3569818 102.51898 3.165201e-20)
        Pressure : (3.783804 102.42195 -2.5564374e-19)
        Viscous  : (0.57317785 0.097022203 2.8729575e-19)
    Sum of moments
        Total    : (-5.1259488 0.21784909 53.210044)
        Pressure : (-5.1210976 0.1891902 53.25628)
        Viscous  : (-0.0048511102 0.028658892 -0.046235813)
Time = 2023

smoothSolver:  Solving for Ux, Initial residual = 1.0265276e-07, Final residual = 6.5353609e-11, No Iterations 9
smoothSolver:  Solving for Uy, Initial residual = 2.2252168e-07, Final residual = 1.7603114e-10, No Iterations 10
GAMG:  Solving for p, Initial residual = 0.00011132902, Final residual = 9.9368418e-08, No Iterations 29
time step continuity errors : sum local = 1.247747e-07, global = -9.3954929e-09, cumulative = -2.9624429e-05
smoothSolver:  Solving for nuTilda, Initial residual = 2.1940031e-07, Final residual = 1.1984044e-10, No Iterations 6
ExecutionTime = 317.32 s  ClockTime = 326 s

nearWallFields nearWallFields1 write:
    Sampling fields to 2023
forces forces1 write:
    Sum of forces
        Total    : (4.3568486 102.51873 1.8793225e-20)
        Pressure : (3.7837198 102.42176 -2.5553842e-19)
        Viscous  : (0.5731288 0.096976428 2.7433164e-19)
    Sum of moments
        Total    : (-5.1259366 0.21784243 53.209815)
        Pressure : (-5.1210878 0.18918599 53.256069)
        Viscous  : (-0.0048488214 0.02865644 -0.046254702)
Time = 2024

smoothSolver:  Solving for Ux, Initial residual = 1.1251095e-07, Final residual = 6.7070539e-11, No Iterations 9
smoothSolver:  Solving for Uy, Initial residual = 2.4245204e-07, Final residual = 1.7556984e-10, No Iterations 10
GAMG:  Solving for p, Initial residual = 0.00010716478, Final residual = 9.682022e-08, No Iterations 31
time step continuity errors : sum local = 1.2156643e-07, global = 7.1918592e-09, cumulative = -2.9617237e-05
smoothSolver:  Solving for nuTilda, Initial residual = 2.7887347e-07, Final residual = 1.1274248e-10, No Iterations 6
ExecutionTime = 317.42 s  ClockTime = 326 s

nearWallFields nearWallFields1 write:
    Sampling fields to 2024
forces forces1 write:
    Sum of forces
        Total    : (4.3568429 102.51886 2.7718893e-20)
        Pressure : (3.7837053 102.42183 -2.5563377e-19)
        Viscous  : (0.57313757 0.097031158 2.8335266e-19)
    Sum of moments
        Total    : (-5.125943 0.21784215 53.210018)
        Pressure : (-5.1210914 0.18918527 53.256241)
        Viscous  : (-0.0048515579 0.028656878 -0.046223858)
Time = 2025

smoothSolver:  Solving for Ux, Initial residual = 1.0798431e-07, Final residual = 5.9871962e-11, No Iterations 9
smoothSolver:  Solving for Uy, Initial residual = 2.3324431e-07, Final residual = 1.5903507e-10, No Iterations 10
GAMG:  Solving for p, Initial residual = 8.9818293e-05, Final residual = 8.789897e-08, No Iterations 40
time step continuity errors : sum local = 1.103715e-07, global = 1.104062e-08, cumulative = -2.9606196e-05
smoothSolver:  Solving for nuTilda, Initial residual = 1.971176e-07, Final residual = 1.0463874e-10, No Iterations 6
ExecutionTime = 317.56 s  ClockTime = 326 s

nearWallFields nearWallFields1 write:
    Sampling fields to 2025
forces forces1 write:
    Sum of forces
        Total    : (4.3570175 102.51917 2.2850945e-20)
        Pressure : (3.7838432 102.4222 -2.5556477e-19)
        Viscous  : (0.57317427 0.096971691 2.7841571e-19)
    Sum of moments
        Total    : (-5.1259585 0.21785087 53.210067)
        Pressure : (-5.12111 0.18919216 53.25633)
        Viscous  : (-0.0048485846 0.028658714 -0.046262677)
Time = 2026

smoothSolver:  Solving for Ux, Initial residual = 1.049573e-07, Final residual = 5.6420041e-11, No Iterations 9
smoothSolver:  Solving for Uy, Initial residual = 2.1008555e-07, Final residual = 1.3706901e-10, No Iterations 10
GAMG:  Solving for p, Initial residual = 9.780958e-05, Final residual = 9.6109982e-08, No Iterations 30
time step continuity errors : sum local = 1.2067591e-07, global = -6.840817e-09, cumulative = -2.9613037e-05
smoothSolver:  Solving for nuTilda, Initial residual = 2.6260318e-07, Final residual = 1.1380572e-10, No Iterations 6
ExecutionTime = 317.66 s  ClockTime = 326 s

nearWallFields nearWallFields1 write:
    Sampling fields to 2026
forces forces1 write:
    Sum of forces
        Total    : (4.3570113 102.51911 3.15747e-20)
        Pressure : (3.7838306 102.42208 -2.5563476e-19)
        Viscous  : (0.5731807 0.097022786 2.8720946e-19)
    Sum of moments
        Total    : (-5.1259554 0.21785057 53.210115)
        Pressure : (-5.1211042 0.18919153 53.25635)
        Viscous  : (-0.0048511393 0.028659035 -0.046235282)
Time = 2027

